####################################################################### 
# 
# This file contains crystal structure data downloaded from the 
# Cambridge Structural Database (CSD) hosted by the Cambridge 
# Crystallographic Data Centre (CCDC).
# 
# Full information about CCDC data access policies and citation 
# guidelines are available at http://www.ccdc.cam.ac.uk/access/V1 
# 
# Audit and citation data items may have been added by the CCDC. 
# Please retain this information to preserve the provenance of 
# this file and to allow appropriate attribution of the data. 
# 
#######################################################################

data_
_audit_block_doi                 10.5517/cc1061qz
_database_code_depnum_ccdc_archive 'CCDC 929340'
loop_
_citation_id
_citation_doi
_citation_year
1 10.1021/cm3025445 2013
_audit_update_record             
;
2013-03-15 deposited with the CCDC.	2021-12-15 downloaded from the CCDC.
;
_chemical_name_mineral           CAU-10-H
_cell_length_a                   21.547(69)
_cell_length_b                   21.547(69)
_cell_length_c                   10.378(33)
_cell_angle_alpha                90
_cell_angle_beta                 90
_cell_angle_gamma                90
_cell_volume                     4818(34)
_symmetry_space_group_name_H-M   I41
loop_
_symmetry_equiv_pos_as_xyz
'-x, -y, z'
'-x+1/2, -y+1/2, z+1/2'
'-y, x+1/2, z+1/4'
'-y+1/2, x, z-1/4'
'y, -x+1/2, z+1/4'
'y+1/2, -x, z-1/4'
'x, y, z'
'x+1/2, y+1/2, z+1/2'
loop_
_atom_site_label
_atom_site_type_symbol
_atom_site_fract_x
_atom_site_fract_y
_atom_site_fract_z
_atom_site_occupancy
_atom_site_B_iso_or_equiv
Al1 Al 0.2544(10) 0.3183(11) 0.3719(20) 1 1.2974
Al2 Al 0.2470(13) 0.6826(12) 0.3518(28) 1 1.4690
C1 C 0.2048(18) 0.3864(10) 0.1290(24) 1 0.4063
C2 C 0.2933(21) 0.3834(13) 0.6020(32) 1 5.6559
C3 C 0.2971(16) 0.6121(11) 0.5804(27) 1 0.4000
C4 C 0.2051(13) 0.6170(21) 0.1368(33) 1 4.1215
C5 C 0.2026(24) 0.44846(96) 0.0598(21) 1 0.4000
C6 C 0.2170(25) 0.4981(23) 0.1338(27) 1 0.4000
C7 C 0.2071(30) 0.5564(10) 0.0665(27) 1 0.4000
C8 C 0.1816(32) 0.5681(10) -0.0581(28) 1 3.5883
C9 C 0.1729(39) 0.5141(15) -0.1232(32) 1 5.7952
C10 C 0.1829(36) 0.4550(13) -0.0661(31) 1 4.6545
C11 C 0.3148(16) 0.5565(11) 0.6611(23) 1 3.1212
C12 C 0.2927(19) 0.5071(18) 0.5910(25) 1 0.4000
C13 C 0.3019(19) 0.4480(11) 0.6502(29) 1 2.7243
C14 C 0.3321(21) 0.4474(13) 0.7749(29) 1 0.4000
C15 C 0.3422(20) 0.5029(25) 0.8439(31) 1 1.4612
C16 C 0.3452(20) 0.5609(12) 0.7816(25) 1 0.4000
O1 O 0.1575(13) 0.6803(25) 0.3828(60) 1 0.4000
O2 O 0.1643(11) 0.3194(27) 0.3914(49) 1 6.3276
O3 O 0.2412(23) 0.3742(19) 0.2241(21) 1 0.4000
O4 O 0.2497(24) 0.7455(26) 0.4688(53) 1 2.4847
O5 O 0.3412(13) 0.3056(22) 0.3092(47) 1 1.1995
O6 O 0.3309(11) 0.6847(19) 0.3480(37) 1 0.4000
O7 O 0.2653(20) 0.3897(20) 0.4923(21) 1 0.6861
O8 O 0.2703(22) 0.2551(20) 0.4808(32) 1 0.4000
O9 O 0.2608(21) 0.6165(20) 0.4831(30) 1 0.4000
O10 O 0.2446(19) 0.6121(23) 0.2306(25) 1 2.9035
