####################################################################### 
# 
# This file contains crystal structure data downloaded from the 
# Cambridge Structural Database (CSD) hosted by the Cambridge 
# Crystallographic Data Centre (CCDC).
# 
# Full information about CCDC data access policies and citation 
# guidelines are available at http://www.ccdc.cam.ac.uk/access/V1 
# 
# Audit and citation data items may have been added by the CCDC. 
# Please retain this information to preserve the provenance of 
# this file and to allow appropriate attribution of the data. 
# 
#######################################################################

data_l
_audit_block_doi                 10.5517/cc14g6g8
_database_code_depnum_ccdc_archive 'CCDC 1056339'
loop_
_citation_id
_citation_doi
_citation_year
1 10.1021/ic502478u 2015
_audit_update_record             
;
2015-03-18 deposited with the CCDC.	2021-12-15 downloaded from the CCDC.
;

_audit_creation_method           SHELXL-2014/7
_shelx_SHELXL_version_number     2014/7
_chemical_name_systematic        ?
_chemical_name_common            ?
_chemical_melting_point          ?
_chemical_formula_moiety         ?
_chemical_formula_sum            'C24 H36 Cu2 O12 P4'
_chemical_formula_weight         767.49

loop_
_atom_type_symbol
_atom_type_description
_atom_type_scat_dispersion_real
_atom_type_scat_dispersion_imag
_atom_type_scat_source
C C 0.0033 0.0016 'International Tables Vol C Tables 4.2.6.8 and 6.1.1.4'
H H 0.0000 0.0000 'International Tables Vol C Tables 4.2.6.8 and 6.1.1.4'
O O 0.0106 0.0060 'International Tables Vol C Tables 4.2.6.8 and 6.1.1.4'
P P 0.1023 0.0942 'International Tables Vol C Tables 4.2.6.8 and 6.1.1.4'
Cu Cu 0.3201 1.2651 'International Tables Vol C Tables 4.2.6.8 and 6.1.1.4'

_space_group_crystal_system      triclinic
_space_group_IT_number           2
_space_group_name_H-M_alt        'P -1'
_space_group_name_Hall           '-P 1'

_shelx_space_group_comment       
;
The symmetry employed for this shelxl refinement is uniquely defined
by the following loop, which should always be used as a source of
symmetry information in preference to the above space-group names.
They are only intended as comments.
;

loop_
_space_group_symop_operation_xyz
'x, y, z'
'-x, -y, -z'

_cell_length_a                   10.033(2)
_cell_length_b                   10.751(2)
_cell_length_c                   15.079(3)
_cell_angle_alpha                89.06(3)
_cell_angle_beta                 85.07(3)
_cell_angle_gamma                67.71(3)
_cell_volume                     1499.1(6)
_cell_formula_units_Z            2
_cell_measurement_temperature    173(2)
_cell_measurement_reflns_used    6329
_cell_measurement_theta_min      0.998
_cell_measurement_theta_max      27.485

_exptl_crystal_description       block
_exptl_crystal_colour            blue
_exptl_crystal_density_meas      ?
_exptl_crystal_density_method    ?
_exptl_crystal_density_diffrn    1.700
_exptl_crystal_F_000             788
_exptl_transmission_factor_min   ?
_exptl_transmission_factor_max   ?
_exptl_crystal_size_max          0.100
_exptl_crystal_size_mid          0.100
_exptl_crystal_size_min          0.100
_exptl_absorpt_coefficient_mu    1.693
_shelx_estimated_absorpt_T_min   0.849
_shelx_estimated_absorpt_T_max   0.849
_exptl_absorpt_correction_type   multi-scan
_exptl_absorpt_correction_T_min  0.8490
_exptl_absorpt_correction_T_max  0.8490
_exptl_absorpt_process_details   'Sheldrick, G. M., SADABS 1997'
_exptl_absorpt_special_details   ?
_diffrn_ambient_temperature      173(2)
_diffrn_radiation_wavelength     0.71073
_diffrn_radiation_type           MoK\a
_diffrn_source                   'fine-focus sealed tube'
_diffrn_measurement_device_type  KappaCCD
_diffrn_measurement_method       CCD
_diffrn_detector_area_resol_mean ?
_diffrn_reflns_number            10042
_diffrn_reflns_av_unetI/netI     0.0302
_diffrn_reflns_av_R_equivalents  0.0241
_diffrn_reflns_limit_h_min       -11
_diffrn_reflns_limit_h_max       11
_diffrn_reflns_limit_k_min       -12
_diffrn_reflns_limit_k_max       12
_diffrn_reflns_limit_l_min       -17
_diffrn_reflns_limit_l_max       17
_diffrn_reflns_theta_min         2.048
_diffrn_reflns_theta_max         24.999
_diffrn_reflns_theta_full        24.999
_diffrn_measured_fraction_theta_max 0.995
_diffrn_measured_fraction_theta_full 0.995
_diffrn_reflns_Laue_measured_fraction_max 0.995
_diffrn_reflns_Laue_measured_fraction_full 0.995
_diffrn_reflns_point_group_measured_fraction_max 0.995
_diffrn_reflns_point_group_measured_fraction_full 0.995
_reflns_number_total             5238
_reflns_number_gt                3955
_reflns_threshold_expression     'I > 2\s(I)'
_reflns_Friedel_coverage         0.000
_reflns_Friedel_fraction_max     .
_reflns_Friedel_fraction_full    .

_reflns_special_details          
;
 Reflections were merged by SHELXL according to the crystal
 class for the calculation of statistics and refinement.
 
 _reflns_Friedel_fraction is defined as the number of unique
 Friedel pairs measured divided by the number that would be
 possible theoretically, ignoring centric projections and
 systematic absences.
;

_computing_data_collection       'Collect (Bruker AXS BV, 1997-2004)'
_computing_cell_refinement       'HKL Scalepack (Otwinowski & Minor 1997)'
_computing_data_reduction        
'HKL Denzo and Scalepack(Otwinowski&Minor 1997)'
_computing_structure_solution    Sir2014
_computing_structure_refinement  'SHELXL-2014/7 (Sheldrick, 2014)'

_computing_molecular_graphics    ?
_computing_publication_material  ?
_refine_special_details          
;
Refinement of F^2^ against ALL reflections. The weighted R-factor wR and
goodness of fit S are based on F^2^, conventional R-factors R are based
on F, with F set to zero for negative F^2^. The threshold expression of
F^2^ > 2\s(F^2^) is used only for calculating R-factors(gt) etc. and is
not relevant to the choice of reflections for refinement. The poor
weighted R-factor is due to the Pseudo Symmetry in the crystal, SIR2014
and PLATON have been failed to get space group with a higher symmetry.
;
_refine_ls_structure_factor_coef Fsqd
_refine_ls_matrix_type           full
_refine_ls_weighting_scheme      calc
_refine_ls_weighting_details     
'w=1/[\s^2^(Fo^2^)+(0.1500P)^2^+33.0000P] where P=(Fo^2^+2Fc^2^)/3'
_atom_sites_solution_primary     ?
_atom_sites_solution_secondary   ?
_atom_sites_solution_hydrogens   geom
_refine_ls_hydrogen_treatment    constr
_refine_ls_extinction_method     none
_refine_ls_extinction_coef       .
_refine_ls_number_reflns         5238
_refine_ls_number_parameters     379
_refine_ls_number_restraints     12
_refine_ls_R_factor_all          0.0929
_refine_ls_R_factor_gt           0.0793
_refine_ls_wR_factor_ref         0.3017
_refine_ls_wR_factor_gt          0.2882
_refine_ls_goodness_of_fit_ref   1.001
_refine_ls_restrained_S_all      0.999
_refine_ls_shift/su_max          0.001
_refine_ls_shift/su_mean         0.000

# start Validation Reply Form

_vrf_PLAT211_l                   
;
PROBLEM: ADP of Atom C15     is N.P.D. or (nearly) 2D ...     Please Check 
RESPONSE: This atom is not specified wrongly. The ligand has been
correctly identified by 13C NMR. There is no disorder as evident by 
a lack of secondary electron density, which would be present if the
benzene ring was able to rotate.
;
_vrf_PLAT112_l                   
;
PROBLEM: ADDSYM Detects Additional (Pseudo) Symm. Elem...        a/2 Check 
RESPONSE: This is the only unit cell indexed from the diffraction data. 
SIR2014 and PLATON have been employed to determined the higher symmetry
unit cell, but no higher symmetry could be found.

;
_vrf_PLAT220_l                   
;
PROBLEM: Large Non-Solvent  C     Ueq(max)/Ueq(min) Range        6.5 Ratio 
RESPONSE: There is no incorrectly identified atomic species.
;
# end Validation Reply Form

loop_
_atom_site_label
_atom_site_type_symbol
_atom_site_fract_x
_atom_site_fract_y
_atom_site_fract_z
_atom_site_U_iso_or_equiv
_atom_site_adp_type
_atom_site_occupancy
_atom_site_site_symmetry_order
_atom_site_calc_flag
_atom_site_refinement_flags_posn
_atom_site_refinement_flags_adp
_atom_site_refinement_flags_occupancy
_atom_site_disorder_assembly
_atom_site_disorder_group
Cu1 Cu 0.24821(9) 1.00035(9) 1.00198(6) 0.0134(4) Uani 1 1 d . . . . .
Cu2 Cu 0.74872(9) 0.50182(9) 0.49934(6) 0.0136(4) Uani 1 1 d . . . . .
P1 P 0.5806(2) 0.8156(2) 0.97424(15) 0.0140(5) Uani 1 1 d . . . . .
P2 P 0.9172(2) 0.1850(2) 1.02578(15) 0.0133(5) Uani 1 1 d . . . . .
P3 P 0.4232(2) 0.6829(2) 0.47295(15) 0.0137(5) Uani 1 1 d . . . . .
P4 P 0.0757(2) 1.3171(2) 0.52160(15) 0.0143(5) Uani 1 1 d . . . . .
O1 O 0.4242(6) 0.8409(6) 0.9933(5) 0.0223(14) Uani 1 1 d . . . . .
O2 O 0.6439(6) 0.8893(6) 1.0311(4) 0.0181(13) Uani 1 1 d . . . . .
O3 O 0.6177(6) 0.8459(6) 0.8745(4) 0.0218(14) Uani 1 1 d . . . . .
O4 O 0.8599(6) 0.1097(6) 0.9657(4) 0.0174(13) Uani 1 1 d . . . . .
O5 O 1.0744(6) 0.1604(6) 1.0110(5) 0.0218(14) Uani 1 1 d . . . . .
O6 O 0.8732(6) 0.1521(6) 1.1233(4) 0.0185(13) Uani 1 1 d . . . . .
O7 O 0.5804(6) 0.6599(6) 0.4861(4) 0.0202(14) Uani 1 1 d . . . . .
O8 O 0.3505(6) 0.6117(5) 0.5332(4) 0.0157(12) Uani 1 1 d . . . . .
O9 O 0.4044(6) 0.6454(6) 0.3752(4) 0.0188(13) Uani 1 1 d . . . . .
O10 O 0.1543(6) 1.3859(6) 0.4634(4) 0.0171(13) Uani 1 1 d . . . . .
O11 O -0.0803(7) 1.3433(6) 0.5056(5) 0.0233(15) Uani 1 1 d . . . . .
O12 O 0.0923(6) 1.3523(6) 0.6199(4) 0.0211(14) Uani 1 1 d . . . . .
C1 C 0.6753(9) 0.6371(9) 0.9892(6) 0.0181(18) Uani 1 1 d . . . . .
C2 C 0.7982(9) 0.5939(9) 1.0356(6) 0.0167(18) Uani 1 1 d . . . . .
H2A H 0.8320 0.6569 1.0591 0.020 Uiso 1 1 calc R U . . .
C3 C 0.8714(9) 0.4557(9) 1.0472(6) 0.0211(19) Uani 1 1 d . . . . .
H3A H 0.9546 0.4250 1.0798 0.025 Uiso 1 1 calc R U . . .
C4 C 0.8236(10) 0.3623(9) 1.0112(6) 0.0181(18) Uani 1 1 d . . . . .
C5 C 0.7012(9) 0.4075(9) 0.9649(6) 0.0202(19) Uani 1 1 d . . . . .
H5A H 0.6664 0.3450 0.9416 0.024 Uiso 1 1 calc R U . . .
C6 C 0.6290(10) 0.5449(9) 0.9525(6) 0.0209(19) Uani 1 1 d . . . . .
H6A H 0.5475 0.5755 0.9185 0.025 Uiso 1 1 calc R U . . .
C7 C 0.5292(12) 0.8452(11) 0.8024(7) 0.036(2) Uani 1 1 d . . . . .
H7A H 0.4398 0.8326 0.8278 0.043 Uiso 1 1 calc R U . . .
C8 C 0.6127(13) 0.7332(12) 0.7379(8) 0.043(3) Uani 1 1 d . . . . .
H8A H 0.5528 0.7333 0.6899 0.065 Uiso 1 1 calc R U . . .
H8B H 0.7001 0.7457 0.7129 0.065 Uiso 1 1 calc R U . . .
H8C H 0.6399 0.6473 0.7687 0.065 Uiso 1 1 calc R U . . .
C9 C 0.4878(16) 0.9818(12) 0.7600(8) 0.053(4) Uani 1 1 d . . . . .
H9A H 0.4281 0.9865 0.7109 0.080 Uiso 1 1 calc R U . . .
H9B H 0.4331 1.0519 0.8045 0.080 Uiso 1 1 calc R U . . .
H9C H 0.5755 0.9955 0.7369 0.080 Uiso 1 1 calc R U . . .
C10 C 0.9076(12) 0.2047(11) 1.2031(7) 0.033(2) Uani 1 1 d . . . . .
H10A H 0.8871 0.3026 1.1954 0.040 Uiso 1 1 calc R U . . .
C11 C 0.8076(13) 0.1886(12) 1.2783(8) 0.045(3) Uani 1 1 d . . . . .
H11A H 0.8267 0.2227 1.3337 0.067 Uiso 1 1 calc R U . . .
H11B H 0.7072 0.2393 1.2658 0.067 Uiso 1 1 calc R U . . .
H11C H 0.8236 0.0932 1.2845 0.067 Uiso 1 1 calc R U . . .
C12 C 1.0599(13) 0.135(2) 1.2202(9) 0.071(5) Uani 1 1 d . . . . .
H12A H 1.0788 0.1732 1.2742 0.107 Uiso 1 1 calc R U . . .
H12B H 1.0808 0.0392 1.2284 0.107 Uiso 1 1 calc R U . . .
H12C H 1.1219 0.1468 1.1696 0.107 Uiso 1 1 calc R U . . .
C13 C 0.3235(9) 0.8618(8) 0.4850(6) 0.0134(17) Uani 1 1 d . . . . .
C14 C 0.3784(9) 0.9369(8) 0.5349(6) 0.0174(18) Uani 1 1 d . U . . .
H14A H 0.4672 0.8938 0.5608 0.021 Uiso 1 1 calc R U . . .
C15 C 0.3039(10) 1.0734(8) 0.5466(6) 0.0180(18) Uani 1 1 d . U . . .
H15A H 0.3420 1.1240 0.5805 0.022 Uiso 1 1 calc R U . . .
C16 C 0.1732(9) 1.1383(8) 0.5092(6) 0.0154(17) Uani 1 1 d . . . . .
C17 C 0.1197(9) 1.0630(8) 0.4577(6) 0.0168(18) Uani 1 1 d . . . . .
H17A H 0.0324 1.1060 0.4302 0.020 Uiso 1 1 calc R U . . .
C18 C 0.1942(10) 0.9269(8) 0.4473(6) 0.0188(18) Uani 1 1 d . . . . .
H18A H 0.1562 0.8761 0.4135 0.023 Uiso 1 1 calc R U . . .
C19 C 0.4768(12) 0.6812(11) 0.2979(7) 0.031(2) Uani 1 1 d . . . . .
H19A H 0.5207 0.7451 0.3162 0.038 Uiso 1 1 calc R U . . .
C20 C 0.3675(14) 0.7483(13) 0.2336(8) 0.052(3) Uani 1 1 d . . . . .
H20A H 0.4148 0.7733 0.1807 0.077 Uiso 1 1 calc R U . . .
H20B H 0.3230 0.6864 0.2163 0.077 Uiso 1 1 calc R U . . .
H20C H 0.2928 0.8292 0.2617 0.077 Uiso 1 1 calc R U . . .
C21 C 0.5937(17) 0.5564(17) 0.2588(9) 0.084(6) Uani 1 1 d . . . . .
H21A H 0.6438 0.5794 0.2062 0.125 Uiso 1 1 calc R U . . .
H21B H 0.6629 0.5151 0.3031 0.125 Uiso 1 1 calc R U . . .
H21C H 0.5512 0.4930 0.2416 0.125 Uiso 1 1 calc R U . . .
C22 C -0.0055(12) 1.3515(11) 0.6960(7) 0.033(2) Uani 1 1 d . . . . .
H22A H -0.1020 1.3657 0.6750 0.040 Uiso 1 1 calc R U . . .
C23 C 0.049(2) 1.2197(15) 0.7415(10) 0.076(5) Uani 1 1 d . . . . .
H23A H -0.0180 1.2208 0.7929 0.114 Uiso 1 1 calc R U . . .
H23B H 0.0576 1.1476 0.6999 0.114 Uiso 1 1 calc R U . . .
H23C H 0.1446 1.2040 0.7618 0.114 Uiso 1 1 calc R U . . .
C24 C -0.0211(15) 1.4683(14) 0.7546(9) 0.055(4) Uani 1 1 d . . . . .
H24A H -0.0868 1.4716 0.8073 0.083 Uiso 1 1 calc R U . . .
H24B H 0.0738 1.4578 0.7732 0.083 Uiso 1 1 calc R U . . .
H24C H -0.0605 1.5519 0.7216 0.083 Uiso 1 1 calc R U . . .

loop_
_atom_site_aniso_label
_atom_site_aniso_U_11
_atom_site_aniso_U_22
_atom_site_aniso_U_33
_atom_site_aniso_U_23
_atom_site_aniso_U_13
_atom_site_aniso_U_12
Cu1 0.0098(6) 0.0095(6) 0.0206(6) 0.0004(4) -0.0013(4) -0.0032(4)
Cu2 0.0096(6) 0.0091(6) 0.0210(6) 0.0006(4) -0.0007(4) -0.0026(4)
P1 0.0090(10) 0.0095(10) 0.0216(12) 0.0015(8) -0.0008(8) -0.0014(8)
P2 0.0090(10) 0.0083(10) 0.0206(11) 0.0008(8) -0.0002(8) -0.0013(8)
P3 0.0097(10) 0.0079(10) 0.0233(12) 0.0010(8) -0.0022(8) -0.0031(8)
P4 0.0097(10) 0.0082(10) 0.0240(12) 0.0000(8) -0.0025(8) -0.0020(8)
O1 0.010(3) 0.013(3) 0.042(4) 0.006(3) 0.005(3) -0.004(2)
O2 0.012(3) 0.016(3) 0.028(3) -0.001(2) -0.003(2) -0.007(2)
O3 0.018(3) 0.020(3) 0.028(4) 0.009(3) -0.002(3) -0.008(3)
O4 0.012(3) 0.017(3) 0.026(3) -0.001(2) -0.001(2) -0.007(2)
O5 0.009(3) 0.012(3) 0.043(4) 0.004(3) 0.006(3) -0.004(2)
O6 0.017(3) 0.012(3) 0.027(3) 0.003(2) 0.001(2) -0.006(2)
O7 0.011(3) 0.007(3) 0.041(4) 0.001(3) -0.006(3) -0.001(2)
O8 0.016(3) 0.009(3) 0.027(3) -0.004(2) -0.002(2) -0.010(2)
O9 0.019(3) 0.013(3) 0.024(3) -0.001(2) -0.001(2) -0.006(2)
O10 0.016(3) 0.010(3) 0.030(3) 0.000(2) -0.006(2) -0.009(2)
O11 0.014(3) 0.009(3) 0.042(4) -0.004(3) -0.008(3) 0.002(2)
O12 0.016(3) 0.016(3) 0.030(4) -0.001(3) -0.003(3) -0.006(2)
C1 0.015(4) 0.018(4) 0.018(4) 0.001(3) -0.001(3) -0.004(3)
C2 0.010(4) 0.017(4) 0.020(4) -0.004(3) -0.001(3) -0.002(3)
C3 0.012(4) 0.022(5) 0.028(5) 0.001(4) -0.003(4) -0.006(4)
C4 0.022(5) 0.017(4) 0.013(4) 0.000(3) -0.001(3) -0.005(4)
C5 0.010(4) 0.021(5) 0.025(5) -0.001(4) -0.002(3) -0.001(3)
C6 0.015(4) 0.021(5) 0.026(5) 0.000(4) -0.003(4) -0.006(4)
C7 0.042(6) 0.042(6) 0.024(5) 0.006(5) -0.004(5) -0.017(5)
C8 0.045(7) 0.042(7) 0.037(6) -0.004(5) -0.003(5) -0.010(5)
C9 0.080(10) 0.036(7) 0.030(6) 0.003(5) -0.018(6) -0.004(6)
C10 0.043(6) 0.038(6) 0.022(5) 0.001(4) -0.003(4) -0.019(5)
C11 0.043(7) 0.045(7) 0.043(7) -0.004(5) 0.004(5) -0.013(6)
C12 0.027(6) 0.153(16) 0.036(7) 0.003(8) -0.007(5) -0.035(8)
C13 0.010(4) 0.006(4) 0.022(4) 0.001(3) 0.002(3) -0.002(3)
C14 0.012(4) 0.011(4) 0.028(5) 0.003(3) -0.002(3) -0.004(3)
C15 0.023(4) 0.008(4) 0.030(5) -0.002(3) -0.004(4) -0.013(4)
C16 0.017(4) 0.005(4) 0.021(4) 0.002(3) 0.004(3) -0.002(3)
C17 0.011(4) 0.008(4) 0.031(5) 0.003(3) -0.006(3) -0.001(3)
C18 0.024(5) 0.010(4) 0.028(5) 0.002(3) -0.011(4) -0.011(4)
C19 0.039(6) 0.032(6) 0.024(5) 0.000(4) 0.002(4) -0.016(5)
C20 0.056(8) 0.053(8) 0.032(6) 0.008(6) -0.002(6) -0.007(6)
C21 0.070(10) 0.088(12) 0.040(8) 0.010(8) 0.033(7) 0.022(9)
C22 0.032(6) 0.045(6) 0.024(5) -0.003(4) 0.004(4) -0.018(5)
C23 0.104(13) 0.051(8) 0.056(9) 0.013(7) 0.025(9) -0.019(9)
C24 0.056(8) 0.058(8) 0.046(8) -0.023(6) 0.012(6) -0.018(7)

_geom_special_details            
;
 All esds (except the esd in the dihedral angle between two l.s. planes)
 are estimated using the full covariance matrix.  The cell esds are taken
 into account individually in the estimation of esds in distances, angles
 and torsion angles; correlations between esds in cell parameters are only
 used when they are defined by crystal symmetry.  An approximate (isotropic)
 treatment of cell esds is used for estimating esds involving l.s. planes.
;

loop_
_geom_bond_atom_site_label_1
_geom_bond_atom_site_label_2
_geom_bond_distance
_geom_bond_site_symmetry_2
_geom_bond_publ_flag
Cu1 O4 1.918(6) 2_667 ?
Cu1 O5 1.926(6) 1_465 ?
Cu1 O2 1.921(6) 2_677 ?
Cu1 O1 1.935(6) . ?
Cu2 O11 1.913(6) 1_645 ?
Cu2 O7 1.910(6) . ?
Cu2 O10 1.930(6) 2_676 ?
Cu2 O8 1.935(5) 2_666 ?
P1 O1 1.490(6) . ?
P1 O2 1.505(6) . ?
P1 O3 1.577(6) . ?
P1 C1 1.810(9) . ?
P2 O5 1.494(6) . ?
P2 O4 1.507(6) . ?
P2 O6 1.573(6) . ?
P2 C4 1.796(9) . ?
P3 O8 1.493(6) . ?
P3 O7 1.531(6) . ?
P3 O9 1.580(6) . ?
P3 C13 1.803(8) . ?
P4 O10 1.498(6) . ?
P4 O11 1.522(6) . ?
P4 O12 1.574(7) . ?
P4 C16 1.800(8) . ?
O2 Cu1 1.921(6) 2_677 ?
O3 C7 1.464(12) . ?
O4 Cu1 1.918(6) 2_667 ?
O5 Cu1 1.926(6) 1_645 ?
O6 C10 1.459(12) . ?
O8 Cu2 1.935(5) 2_666 ?
O9 C19 1.445(12) . ?
O10 Cu2 1.930(6) 2_676 ?
O11 Cu2 1.913(6) 1_465 ?
O12 C22 1.447(12) . ?
C1 C6 1.385(13) . ?
C1 C2 1.388(12) . ?
C2 C3 1.401(13) . ?
C3 C4 1.400(13) . ?
C4 C5 1.385(12) . ?
C5 C6 1.394(13) . ?
C7 C8 1.493(15) . ?
C7 C9 1.514(15) . ?
C10 C12 1.468(16) . ?
C10 C11 1.500(15) . ?
C13 C18 1.386(12) . ?
C13 C14 1.397(12) . ?
C14 C15 1.377(12) . ?
C15 C16 1.394(12) . ?
C16 C17 1.403(12) . ?
C17 C18 1.372(12) . ?
C19 C20 1.490(16) . ?
C19 C21 1.495(17) . ?
C22 C24 1.498(16) . ?
C22 C23 1.491(17) . ?

loop_
_geom_angle_atom_site_label_1
_geom_angle_atom_site_label_2
_geom_angle_atom_site_label_3
_geom_angle
_geom_angle_site_symmetry_1
_geom_angle_site_symmetry_3
_geom_angle_publ_flag
O4 Cu1 O5 91.2(2) 2_667 1_465 ?
O4 Cu1 O2 179.6(2) 2_667 2_677 ?
O5 Cu1 O2 88.7(2) 1_465 2_677 ?
O4 Cu1 O1 89.4(2) 2_667 . ?
O5 Cu1 O1 179.3(2) 1_465 . ?
O2 Cu1 O1 90.7(2) 2_677 . ?
O11 Cu2 O7 176.8(3) 1_645 . ?
O11 Cu2 O10 91.6(3) 1_645 2_676 ?
O7 Cu2 O10 89.0(2) . 2_676 ?
O11 Cu2 O8 88.3(3) 1_645 2_666 ?
O7 Cu2 O8 91.2(2) . 2_666 ?
O10 Cu2 O8 177.8(2) 2_676 2_666 ?
O1 P1 O2 117.4(4) . . ?
O1 P1 O3 111.9(4) . . ?
O2 P1 O3 106.5(4) . . ?
O1 P1 C1 105.6(4) . . ?
O2 P1 C1 108.0(4) . . ?
O3 P1 C1 106.9(4) . . ?
O5 P2 O4 117.0(4) . . ?
O5 P2 O6 112.4(4) . . ?
O4 P2 O6 105.4(3) . . ?
O5 P2 C4 105.5(4) . . ?
O4 P2 C4 108.8(4) . . ?
O6 P2 C4 107.3(4) . . ?
O8 P3 O7 117.8(3) . . ?
O8 P3 O9 105.6(3) . . ?
O7 P3 O9 112.2(4) . . ?
O8 P3 C13 109.1(4) . . ?
O7 P3 C13 106.0(4) . . ?
O9 P3 C13 105.6(4) . . ?
O10 P4 O11 118.1(4) . . ?
O10 P4 O12 105.5(3) . . ?
O11 P4 O12 112.5(4) . . ?
O10 P4 C16 108.3(4) . . ?
O11 P4 C16 106.4(4) . . ?
O12 P4 C16 105.4(4) . . ?
P1 O1 Cu1 134.5(4) . . ?
P1 O2 Cu1 130.4(4) . 2_677 ?
C7 O3 P1 123.2(6) . . ?
P2 O4 Cu1 128.6(4) . 2_667 ?
P2 O5 Cu1 133.6(4) . 1_645 ?
C10 O6 P2 123.9(6) . . ?
P3 O7 Cu2 133.1(4) . . ?
P3 O8 Cu2 128.1(4) . 2_666 ?
C19 O9 P3 122.1(6) . . ?
P4 O10 Cu2 127.4(4) . 2_676 ?
P4 O11 Cu2 134.3(4) . 1_465 ?
C22 O12 P4 124.6(6) . . ?
C6 C1 C2 120.5(8) . . ?
C6 C1 P1 120.6(7) . . ?
C2 C1 P1 118.9(7) . . ?
C1 C2 C3 118.8(8) . . ?
C4 C3 C2 120.8(8) . . ?
C3 C4 C5 119.4(8) . . ?
C3 C4 P2 121.0(7) . . ?
C5 C4 P2 119.6(7) . . ?
C4 C5 C6 119.9(9) . . ?
C1 C6 C5 120.5(8) . . ?
O3 C7 C8 109.9(9) . . ?
O3 C7 C9 106.3(9) . . ?
C8 C7 C9 112.3(9) . . ?
O6 C10 C12 111.9(10) . . ?
O6 C10 C11 106.4(9) . . ?
C12 C10 C11 111.7(10) . . ?
C18 C13 C14 119.0(7) . . ?
C18 C13 P3 122.5(7) . . ?
C14 C13 P3 118.6(6) . . ?
C15 C14 C13 120.1(8) . . ?
C14 C15 C16 120.7(8) . . ?
C15 C16 C17 119.0(7) . . ?
C15 C16 P4 121.6(7) . . ?
C17 C16 P4 119.3(6) . . ?
C18 C17 C16 119.6(8) . . ?
C13 C18 C17 121.5(8) . . ?
O9 C19 C20 108.4(9) . . ?
O9 C19 C21 108.6(9) . . ?
C20 C19 C21 112.0(11) . . ?
O12 C22 C24 106.7(9) . . ?
O12 C22 C23 110.5(10) . . ?
C24 C22 C23 113.4(11) . . ?

_refine_diff_density_max         1.120
_refine_diff_density_min         -1.275
_refine_diff_density_rms         0.332

_shelx_res_file                  
;

    l.res created by SHELXL-2014/7


REM
REM  Shelx file produced by Sir2014 on Wed Dec 10  2014 at 10:36:22
REM  Structure name: CuP
REM
TITL    Sir2014_l 10/12/2014
CELL   0.71073    10.0330  10.7510  15.0790  89.0560  85.0690  67.7080
ZERR         2     0.0020   0.0022   0.0030   0.0300   0.0300   0.0300
LATT  1
SFAC C H O P CU
UNIT 48 72 24 8 4
L.S.      10
size 0.1 0.1 0.1
temp -100
acta
omit -3 50
FMAP      2
PLAN     10
isor C15 C14
WGHT    0.150000   33.000000
FVAR       0.45988
CU1   5    0.248215    1.000355    1.001982    11.00000    0.00980    0.00949 =
         0.02063    0.00037   -0.00130   -0.00324
CU2   5    0.748715    0.501816    0.499344    11.00000    0.00960    0.00912 =
         0.02096    0.00065   -0.00073   -0.00256
P1    4    0.580616    0.815582    0.974240    11.00000    0.00896    0.00949 =
         0.02156    0.00154   -0.00085   -0.00141
P2    4    0.917229    0.184966    1.025777    11.00000    0.00895    0.00835 =
         0.02064    0.00078   -0.00017   -0.00132
P3    4    0.423189    0.682943    0.472947    11.00000    0.00970    0.00786 =
         0.02333    0.00102   -0.00216   -0.00311
P4    4    0.075704    1.317082    0.521600    11.00000    0.00968    0.00823 =
         0.02401    0.00003   -0.00250   -0.00201
O1    3    0.424194    0.840915    0.993289    11.00000    0.01035    0.01309 =
         0.04165    0.00580    0.00504   -0.00424
O2    3    0.643939    0.889295    1.031106    11.00000    0.01198    0.01598 =
         0.02828   -0.00083   -0.00282   -0.00728
O3    3    0.617748    0.845905    0.874507    11.00000    0.01771    0.02008 =
         0.02816    0.00869   -0.00208   -0.00822
O4    3    0.859926    0.109674    0.965733    11.00000    0.01162    0.01673 =
         0.02561   -0.00124   -0.00131   -0.00725
O5    3    1.074410    0.160426    1.011029    11.00000    0.00932    0.01203 =
         0.04256    0.00409    0.00647   -0.00448
O6    3    0.873179    0.152068    1.123325    11.00000    0.01661    0.01240 =
         0.02684    0.00271    0.00083   -0.00645
O7    3    0.580417    0.659899    0.486106    11.00000    0.01111    0.00701 =
         0.04059    0.00082   -0.00604   -0.00064
O8    3    0.350477    0.611719    0.533176    11.00000    0.01555    0.00941 =
         0.02696   -0.00366   -0.00245   -0.00971
O9    3    0.404384    0.645375    0.375206    11.00000    0.01869    0.01343 =
         0.02428   -0.00088   -0.00105   -0.00632
O10   3    0.154325    1.385921    0.463382    11.00000    0.01583    0.00972 =
         0.02998   -0.00045   -0.00572   -0.00876
O11   3   -0.080332    1.343328    0.505595    11.00000    0.01443    0.00883 =
         0.04222   -0.00367   -0.00788    0.00170
O12   3    0.092265    1.352340    0.619881    11.00000    0.01634    0.01617 =
         0.03038   -0.00098   -0.00295   -0.00559
C1    1    0.675343    0.637080    0.989207    11.00000    0.01517    0.01842 =
         0.01827    0.00092   -0.00080   -0.00378
C2    1    0.798210    0.593888    1.035590    11.00000    0.01027    0.01732 =
         0.01956   -0.00381   -0.00072   -0.00184
AFIX  43
H2A   2    0.832024    0.656913    1.059070    11.00000   -1.20000
AFIX   0
C3    1    0.871442    0.455686    1.047150    11.00000    0.01233    0.02218 =
         0.02845    0.00087   -0.00267   -0.00598
AFIX  43
H3A   2    0.954566    0.424994    1.079755    11.00000   -1.20000
AFIX   0
C4    1    0.823628    0.362253    1.011242    11.00000    0.02240    0.01695 =
         0.01282   -0.00013   -0.00148   -0.00512
C5    1    0.701189    0.407461    0.964895    11.00000    0.01034    0.02052 =
         0.02544   -0.00068   -0.00172   -0.00100
AFIX  43
H5A   2    0.666409    0.345001    0.941614    11.00000   -1.20000
AFIX   0
C6    1    0.629043    0.544873    0.952466    11.00000    0.01455    0.02122 =
         0.02613    0.00029   -0.00320   -0.00557
AFIX  43
H6A   2    0.547461    0.575473    0.918514    11.00000   -1.20000
AFIX   0
C7    1    0.529202    0.845163    0.802394    11.00000    0.04220    0.04158 =
         0.02434    0.00591   -0.00395   -0.01690
AFIX  13
H7A   2    0.439837    0.832568    0.827763    11.00000   -1.20000
AFIX   0
C8    1    0.612669    0.733240    0.737928    11.00000    0.04455    0.04226 =
         0.03733   -0.00410   -0.00288   -0.01040
AFIX  33
H8A   2    0.552826    0.733304    0.689857    11.00000   -1.50000
H8B   2    0.700117    0.745669    0.712901    11.00000   -1.50000
H8C   2    0.639861    0.647268    0.768702    11.00000   -1.50000
AFIX   0
C9    1    0.487837    0.981797    0.759959    11.00000    0.08015    0.03624 =
         0.02956    0.00300   -0.01794   -0.00409
AFIX  33
H9A   2    0.428065    0.986476    0.710949    11.00000   -1.50000
H9B   2    0.433144    1.051881    0.804542    11.00000   -1.50000
H9C   2    0.575526    0.995485    0.736913    11.00000   -1.50000
AFIX   0
C10   1    0.907569    0.204667    1.203140    11.00000    0.04262    0.03783 =
         0.02234    0.00147   -0.00271   -0.01943
AFIX  13
H10A  2    0.887128    0.302574    1.195379    11.00000   -1.20000
AFIX   0
C11   1    0.807585    0.188594    1.278334    11.00000    0.04258    0.04472 =
         0.04268   -0.00377    0.00419   -0.01289
AFIX  33
H11A  2    0.826701    0.222745    1.333729    11.00000   -1.50000
H11B  2    0.707164    0.239316    1.265838    11.00000   -1.50000
H11C  2    0.823585    0.093223    1.284546    11.00000   -1.50000
AFIX   0
C12   1    1.059922    0.135191    1.220242    11.00000    0.02663    0.15298 =
         0.03577    0.00338   -0.00715   -0.03466
AFIX  33
H12A  2    1.078762    0.173196    1.274190    11.00000   -1.50000
H12B  2    1.080783    0.039194    1.228389    11.00000   -1.50000
H12C  2    1.121901    0.146813    1.169562    11.00000   -1.50000
AFIX   0
C13   1    0.323512    0.861762    0.484984    11.00000    0.01021    0.00615 =
         0.02226    0.00128    0.00209   -0.00224
C14   1    0.378381    0.936947    0.534904    11.00000    0.01214    0.01121 =
         0.02832    0.00300   -0.00238   -0.00366
AFIX  43
H14A  2    0.467205    0.893844    0.560840    11.00000   -1.20000
AFIX   0
C15   1    0.303915    1.073447    0.546580    11.00000    0.02295    0.00769 =
         0.03019   -0.00232   -0.00369   -0.01321
AFIX  43
H15A  2    0.342013    1.123955    0.580480    11.00000   -1.20000
AFIX   0
C16   1    0.173233    1.138303    0.509190    11.00000    0.01706    0.00510 =
         0.02124    0.00239    0.00387   -0.00231
C17   1    0.119705    1.062983    0.457721    11.00000    0.01076    0.00791 =
         0.03054    0.00299   -0.00592   -0.00129
AFIX  43
H17A  2    0.032358    1.106009    0.430224    11.00000   -1.20000
AFIX   0
C18   1    0.194182    0.926870    0.447319    11.00000    0.02397    0.01020 =
         0.02828    0.00193   -0.01110   -0.01140
AFIX  43
H18A  2    0.156242    0.876099    0.413533    11.00000   -1.20000
AFIX   0
C19   1    0.476802    0.681226    0.297856    11.00000    0.03940    0.03250 =
         0.02351   -0.00025    0.00157   -0.01611
AFIX  13
H19A  2    0.520720    0.745134    0.316238    11.00000   -1.20000
AFIX   0
C20   1    0.367515    0.748287    0.233647    11.00000    0.05601    0.05285 =
         0.03248    0.00790   -0.00197   -0.00652
AFIX  33
H20A  2    0.414833    0.773334    0.180685    11.00000   -1.50000
H20B  2    0.323026    0.686445    0.216328    11.00000   -1.50000
H20C  2    0.292792    0.829199    0.261688    11.00000   -1.50000
AFIX   0
C21   1    0.593731    0.556429    0.258826    11.00000    0.06979    0.08760 =
         0.04019    0.00998    0.03250    0.02155
AFIX  33
H21A  2    0.643752    0.579381    0.206250    11.00000   -1.50000
H21B  2    0.662900    0.515086    0.303085    11.00000   -1.50000
H21C  2    0.551171    0.493031    0.241564    11.00000   -1.50000
AFIX   0
C22   1   -0.005527    1.351509    0.696019    11.00000    0.03233    0.04533 =
         0.02409   -0.00316    0.00353   -0.01762
AFIX  13
H22A  2   -0.101997    1.365740    0.674955    11.00000   -1.20000
AFIX   0
C23   1    0.049353    1.219676    0.741525    11.00000    0.10445    0.05150 =
         0.05625    0.01339    0.02464   -0.01918
AFIX  33
H23A  2   -0.018002    1.220762    0.792861    11.00000   -1.50000
H23B  2    0.057560    1.147621    0.699858    11.00000   -1.50000
H23C  2    0.144566    1.204008    0.761764    11.00000   -1.50000
AFIX   0
C24   1   -0.021113    1.468323    0.754581    11.00000    0.05646    0.05787 =
         0.04601   -0.02283    0.01201   -0.01750
AFIX  33
H24A  2   -0.086824    1.471630    0.807276    11.00000   -1.50000
H24B  2    0.073756    1.457826    0.773151    11.00000   -1.50000
H24C  2   -0.060463    1.551910    0.721615    11.00000   -1.50000

AFIX   0
HKLF      4

REM     Sir2014_l 10/12/2014
REM R1 =  0.0793 for    3955 Fo > 4sig(Fo)  and  0.0929 for all    5238 data
REM    379 parameters refined using     12 restraints

END

WGHT      0.0969     25.5500

REM Highest difference peak  1.120,  deepest hole -1.275,  1-sigma level  0.332
Q1    1   0.7771  0.8230  0.9944  11.00000  0.05    1.12
Q2    1   0.7210  0.1753  1.0049  11.00000  0.05    1.04
Q3    1   0.7874  0.7561  0.7567  11.00000  0.05    0.83
Q4    1   0.8778  0.2441  1.2598  11.00000  0.05    0.83
Q5    1   0.4376  0.4947  0.5255  11.00000  0.05    0.81
Q6    1   0.9934  0.0185  1.2514  11.00000  0.05    0.79
Q7    1   0.0641  1.5059  0.4769  11.00000  0.05    0.77
Q8    1   0.9466  0.0064  1.0210  11.00000  0.05    0.75
Q9    1   0.5679  0.9963  0.9768  11.00000  0.05    0.74
Q10   1   0.6313  0.6765  0.2510  11.00000  0.05    0.74
;
_shelx_res_checksum              33174

_shelx_hkl_file                  
;
   0   0  -2    1.80    0.50
   0   0   3    7.50    1.00
   0   0  -3    4.40    0.60
   0   0   5    8.00    1.30
   0   0  -5    4.60    1.20
   0   0   6 6500.90  144.90
   0   0  -6 6562.70  146.30
   0   0   7    0.60    0.80
   0   0  -7    2.20    1.10
   0   0   8 5020.70   92.50
   0   0  -8 5076.40  116.30
   0   0   9    4.40    1.70
   0   0  -9    0.70    2.70
   0   0  10  832.10   28.20
   0   0 -10  761.60   20.00
   0   0  11    6.60    3.60
   0   0 -11    7.60    3.10
   0   0  12   10.50    3.10
   0   0 -12    9.60    3.10
   0   0  13   -1.00    2.10
   0   0 -13   -2.80    2.70
   0   0  14   13.80    2.60
   0   0 -14   25.30    3.20
   0   0  15    3.80    3.30
   0   0 -15    0.90    3.50
   0   0  16   59.10    5.40
   0   0 -16   63.90    5.30
   0   0  17    1.70    3.90
   0   0 -17   11.00    4.20
   0   0  18    2.40    1.90
   0   0 -18    1.80    2.90
   0   0  19    3.90    2.50
   0   0 -19    1.80    2.60
   0   1 -19   10.80    4.40
   0  -1  19   11.70    3.20
   0   1 -18   98.90    7.40
   0  -1  18  129.50    9.20
   0   1 -17   67.90    5.90
   0  -1  17   65.90    5.70
   0   1 -16  292.30   13.00
   0  -1  16  251.90   11.70
   0   1 -15  303.80   13.50
   0  -1  15  303.00   13.60
   0   1 -14   91.70    6.10
   0  -1  14   99.40    6.20
   0   1 -13  189.20    8.60
   0  -1  13  208.10   10.70
   0   1 -12  638.90   23.40
   0  -1  12  628.90   22.30
   0   1 -11  779.90   19.80
   0  -1  11  794.20   28.20
   0   1 -10  917.40   24.00
   0  -1  10 1027.70   37.80
   0   1  -9 2113.30   72.70
   0  -1   9 2193.00   52.40
   0   1  -8  411.30   12.50
   0  -1   8  394.50    9.10
   0   1  -7 3384.80   77.30
   0  -1   7 3402.10   62.90
   0   1  -6  158.80    4.40
   0  -1   6  147.30    3.40
   0   1  -5 3784.50  123.00
   0  -1   5 3683.40   83.50
   0   1  -4   84.10    2.50
   0  -1   4   84.20    2.10
   0   1  -3 1808.30   41.60
   0  -1   3 1946.40   62.20
   0   1  -2 1914.40   42.90
   0  -1   2 2037.70   63.90
   0   1   0    0.80    0.50
   0  -1   0    1.50    0.40
   0   1   2 2139.80   66.90
   0  -1  -2 2112.30   65.90
   0   1   3 2180.40   49.20
   0  -1  -3 2122.90   48.50
   0   1   4   99.80    2.90
   0  -1  -4  104.30    3.10
   0   1   5 3665.10   82.60
   0  -1  -5 3665.90   82.60
   0   1   6  126.20    4.10
   0  -1  -6  112.50    3.70
   0   1   7 3403.80   79.40
   0  -1  -7 3296.90   78.00
   0   1   8  511.40   11.40
   0  -1  -8  524.00   14.40
   0   1   9 2615.60   49.80
   0  -1  -9 2623.60   61.90
   0   1  10  913.60   36.70
   0  -1 -10  937.00   38.20
   0   1  11  667.60   24.30
   0  -1 -11  669.00   25.30
   0   1  12  743.80   29.30
   0  -1 -12  811.70   31.70
   0   1  13  389.70   15.50
   0  -1 -13  377.60   16.60
   0   1  14   41.40    4.80
   0  -1 -14   39.40    4.90
   0   1  15  183.40    6.30
   0  -1 -15  194.70    9.30
   0   1  16  298.00   14.40
   0  -1 -16  337.10   14.10
   0   1  18   57.40    5.10
   0  -1 -18   86.10    6.50
   0   1  19   19.10    4.70
   0  -1 -19    3.40    3.90
   0   2 -19    7.60    4.00
   0  -2  19   25.60    4.70
   0   2 -18  269.90   14.70
   0  -2  18  295.60   16.50
   0   2 -17   64.50    5.90
   0  -2  17   90.50    6.50
   0   2 -16  318.80   13.60
   0  -2  16  342.60   15.30
   0   2 -15   11.60    3.60
   0  -2  15   18.50    3.70
   0   2 -14  324.10   13.80
   0  -2  14  288.50   14.00
   0   2 -13   52.60    4.70
   0  -2  13   62.90    5.10
   0   2 -12  511.50   21.70
   0  -2  12  502.20   21.70
   0   2 -11  517.90   14.00
   0  -2  11  567.70   20.30
   0   2 -10  164.60    5.40
   0  -2  10  178.80    8.20
   0   2  -9  252.40    7.10
   0  -2   9  261.80    7.20
   0   2  -8  236.70    6.60
   0  -2   8  233.20    5.40
   0   2  -7    9.20    1.20
   0  -2   7    5.60    0.80
   0   2  -6  346.60    8.80
   0  -2   6  349.30    7.20
   0   2  -5   18.50    1.30
   0  -2   5   19.20    1.30
   0   2  -4  764.70   15.10
   0  -2   4  752.00   14.60
   0   2  -3    2.00    0.60
   0  -2   3    2.70    0.50
   0   2  -2 2122.30   47.80
   0  -2   2 2345.40   52.70
   0   2  -1 2049.30   37.50
   0  -2   1 2116.00   38.80
   0   2   0   69.80    1.20
   0  -2   0   72.50    1.70
   0   2   1 2103.10   32.90
   0  -2  -1 2127.60   38.70
   0   2   2 1817.40   33.40
   0  -2  -2 1838.00   58.60
   0   2   3    6.30    0.80
   0  -2  -3    7.00    0.70
   0   2   4  585.50   14.80
   0  -2  -4  599.50   15.60
   0   2   5   68.70    2.30
   0  -2  -5   53.80    2.20
   0   2   6  179.80    6.10
   0  -2  -6  161.80    5.80
   0   2   7    6.70    1.10
   0  -2  -7    5.00    1.10
   0   2   8  139.60    7.10
   0  -2  -8  148.70    4.90
   0   2   9  135.60    5.10
   0  -2  -9  142.40    5.50
   0   2  10  107.60    4.00
   0  -2 -10  129.00    7.10
   0   2  11  637.50   24.60
   0  -2 -11  613.70   23.20
   0   2  12  638.70   23.70
   0  -2 -12  634.60   22.60
   0   2  13   18.60    4.20
   0  -2 -13   23.90    4.40
   0   2  14  322.80   14.60
   0  -2 -14  323.90   13.30
   0   2  15   45.70    4.10
   0  -2 -15   62.70    4.90
   0   2  16  416.90   17.80
   0  -2 -16  431.80   17.80
   0   2  17   58.80    5.50
   0  -2 -17   58.90    5.10
   0   2  18  396.60   21.00
   0  -2 -18  354.80   18.40
   0   2  19    9.30    3.10
   0  -2 -19   14.30    3.30
   0   3 -19  375.90   20.10
   0   3 -18   17.30    4.30
   0  -3  18   11.40    4.10
   0   3 -17  536.60   26.50
   0  -3  17  462.70   24.10
   0   3 -16   10.60    2.80
   0  -3  16    4.10    2.80
   0   3 -15  454.30   17.70
   0  -3  15  442.90   17.80
   0   3 -14   44.30    6.30
   0  -3  14   52.80    6.90
   0   3 -13 1664.10   61.80
   0  -3  13 1678.30   63.00
   0   3 -12  166.40    8.20
   0  -3  12  150.40    6.70
   0   3 -11  848.50   24.00
   0   3 -10   75.90    2.60
   0  -3  10   81.00    4.80
   0   3  -9  262.50    6.00
   0  -3   9  266.80   10.80
   0   3  -8  596.50   12.20
   0  -3   8  563.10   11.80
   0   3  -7  116.90    3.10
   0  -3   7  104.30    2.80
   0   3  -6  467.60   12.70
   0  -3   6  454.90   11.70
   0   3  -5   61.40    1.80
   0  -3   5   62.30    1.80
   0   3  -4  526.90    9.10
   0  -3   4  516.30    9.00
   0   3  -3  137.60    2.90
   0  -3   3  150.00    3.00
   0   3  -2   97.30    2.10
   0  -3   2   92.40    1.90
   0   3  -1 2178.30   35.00
   0  -3   1 2220.80   29.00
   0   3   0   91.70    1.60
   0  -3   0   90.60    1.50
   0   3   1 1700.30   24.30
   0  -3  -1 1656.70   23.80
   0   3   2   80.30    2.00
   0  -3  -2   81.90    1.80
   0   3   3  165.20    3.60
   0  -3  -3  167.10    3.80
   0   3   4  343.70    9.10
   0  -3  -4  339.80    9.60
   0   3   5   82.00    2.80
   0  -3  -5   70.60    2.70
   0   3   6  649.80   16.20
   0  -3  -6  624.50   15.90
   0   3   7  155.70    4.60
   0  -3  -7  138.20    4.40
   0   3   8  438.80   18.60
   0  -3  -8  477.60   13.90
   0   3   9  373.10   10.00
   0  -3  -9  373.80   15.30
   0   3  10  131.70    4.60
   0  -3 -10  142.60    7.00
   0   3  11 1187.70   44.90
   0  -3 -11 1087.10   40.10
   0   3  12  180.70   10.10
   0  -3 -12  189.80   10.90
   0   3  13 1603.90   55.50
   0  -3 -13 1580.70   53.40
   0   3  14   17.30    4.60
   0  -3 -14   17.70    3.90
   0   3  15  444.60   19.70
   0  -3 -15  479.60   18.70
   0   3  16   14.40    3.90
   0  -3 -16   23.40    4.70
   0   3  17  556.50   27.80
   0  -3 -17  555.40   27.70
   0   3  18   51.40    6.30
   0  -3 -18   43.00    5.90
   0   4 -18  188.30   10.90
   0  -4  18  145.70    9.40
   0   4 -17   30.70    4.20
   0  -4  17   24.40    4.10
   0   4 -16  227.70   10.50
   0  -4  16  200.90    9.90
   0   4 -15   91.70    5.90
   0  -4  15   90.60    6.00
   0   4 -14  316.10   13.40
   0  -4  14  350.80   15.60
   0   4 -13   88.50    6.20
   0  -4  13   84.20    6.90
   0   4 -12  867.90   23.30
   0  -4  12  934.80   34.20
   0   4 -11  944.90   24.10
   0  -4  11 1017.80   35.90
   0   4 -10  215.80   10.70
   0  -4  10  208.20    9.60
   0   4  -9  553.50   12.10
   0  -4   9  600.80   22.90
   0   4  -8  230.60    5.70
   0  -4   8  238.90    7.30
   0   4  -7 1255.30   24.90
   0  -4   7 1212.70   24.20
   0   4  -6   25.30    1.00
   0  -4   6   24.60    1.00
   0   4  -5  470.40    8.40
   0  -4   5  447.20    9.40
   0   4  -4  565.80   10.10
   0  -4   4  596.90   10.60
   0   4  -3 1294.40   21.60
   0  -4   3 1283.00   21.40
   0   4  -2  547.50    9.40
   0  -4   2  556.60    8.50
   0   4  -1  306.30    5.50
   0  -4   1  332.40    4.80
   0   4   0  470.60    7.20
   0  -4   0  468.30    6.60
   0   4   1  499.20    7.60
   0  -4  -1  489.60    8.60
   0   4   2  351.00    6.10
   0  -4  -2  334.40    6.40
   0   4   3 1205.30   22.90
   0  -4  -3 1228.20   24.30
   0   4   4  864.90   16.80
   0  -4  -4  888.50   17.80
   0   4   5  272.90    7.60
   0  -4  -5  292.80    9.10
   0   4   6   36.90    1.90
   0  -4  -6   39.50    1.80
   0   4   7  874.60   23.20
   0  -4  -7  848.50   23.10
   0   4   8  360.90    8.00
   0  -4  -8  373.70   13.70
   0   4   9  441.10   12.60
   0  -4  -9  489.40   22.20
   0   4  10  219.10    6.60
   0  -4 -10  225.70    9.70
   0   4  11  930.50   38.50
   0  -4 -11  937.60   38.40
   0   4  12 1024.30   42.10
   0  -4 -12 1009.90   40.90
   0   4  13   45.10    5.80
   0  -4 -13   42.90    5.20
   0   4  14  289.20   15.00
   0  -4 -14  329.30   14.80
   0   4  15   99.00    7.00
   0  -4 -15  101.30    6.60
   0   4  16  153.30    9.10
   0  -4 -16  177.60    8.90
   0   4  17   44.10    4.90
   0  -4 -17   36.70    4.40
   0   4  18  133.60    9.90
   0  -4 -18  146.90    9.40
   0   5 -18  116.00    8.70
   0   5 -17   13.30    3.90
   0  -5  17   19.10    3.60
   0   5 -16  125.80    8.40
   0  -5  16  140.80    8.40
   0   5 -15  113.20    6.60
   0  -5  15  110.80    6.60
   0   5 -14  103.50    6.30
   0  -5  14   87.80    5.10
   0   5 -13  171.70    8.70
   0  -5  13  189.70    8.70
   0   5 -12  332.70   10.20
   0  -5  12  378.70   15.60
   0   5 -11  658.10   17.60
   0  -5  11  700.90   26.20
   0   5 -10  634.30   16.70
   0  -5  10  644.30   24.80
   0   5  -9 1049.90   27.30
   0  -5   9 1096.60   39.30
   0   5  -8   54.20    2.60
   0  -5   8   66.10    3.40
   0   5  -7 2162.70   42.00
   0  -5   7 2255.40   53.60
   0   5  -6   37.10    1.20
   0  -5   6   40.90    1.50
   0   5  -5 3555.70   57.50
   0  -5   5 3632.80   59.30
   0   5  -4    7.20    0.70
   0  -5   4    8.60    0.80
   0   5  -3 5190.80   82.20
   0  -5   3 5197.70   82.10
   0   5  -2  868.00   16.90
   0  -5   2  901.20   12.40
   0   5  -1 5535.20   87.10
   0  -5   1 5537.30   71.40
   0   5   0   36.60    1.40
   0  -5   0   32.50    0.80
   0   5   1 5886.10  108.10
   0  -5  -1 5905.10   93.30
   0   5   2  526.10    8.90
   0  -5  -2  524.10    9.80
   0   5   3 3526.10   56.60
   0  -5  -3 3511.40   68.00
   0   5   4    2.50    0.90
   0  -5  -4    4.40    1.40
   0   5   5 3248.30   62.40
   0  -5  -5 3181.00   64.20
   0   5   6   27.30    1.40
   0  -5  -6   34.20    2.20
   0   5   7 1413.90   26.20
   0  -5  -7 1506.40   42.30
   0   5   8  182.80    4.40
   0  -5  -8  197.50    8.50
   0   5   9  919.80   24.50
   0  -5  -9 1001.20   40.60
   0   5  10  592.30   16.80
   0  -5 -10  570.00   23.70
   0   5  11  451.90   21.90
   0  -5 -11  403.80   20.10
   0   5  12  226.80    9.70
   0  -5 -12  239.90   10.40
   0   5  15  129.50    7.40
   0  -5 -15  142.20    7.80
   0   5  16   45.70    4.80
   0  -5 -16   52.40    5.20
   0   5  17   18.70    3.70
   0  -5 -17   31.30    4.30
   0   6 -17   22.90    4.20
   0   6 -16  203.00   12.20
   0   6 -15  124.30    7.60
   0  -6  15  140.80    8.90
   0   6 -14  432.90   17.20
   0  -6  14  403.20   16.70
   0   6 -13  188.40    8.80
   0  -6  13  220.00    9.90
   0   6 -12  450.80   18.70
   0  -6  12  425.00   17.10
   0   6 -11  139.60    5.40
   0  -6  11  163.30    8.80
   0   6 -10 1624.70   42.20
   0  -6  10 1694.00   61.50
   0   6  -9  250.90    7.60
   0  -6   9  283.90   12.40
   0   6  -8 2247.90   56.70
   0  -6   8 2362.60   84.40
   0   6  -7  550.20   15.20
   0  -6   7  545.00   14.70
   0   6  -6 2771.10   67.60
   0  -6   6 2739.80   53.60
   0   6  -5  557.70   12.30
   0  -6   5  574.10   12.30
   0   6  -4 2069.30   40.50
   0  -6   4 2059.80   34.50
   0   6  -3   24.50    1.40
   0  -6   3   30.50    1.40
   0   6  -2 3114.70   58.60
   0  -6   2 3216.70   42.60
   0   6  -1   18.80    0.80
   0  -6   1   19.10    0.70
   0   6   0 5566.70  103.30
   0  -6   0 5707.60   73.90
   0   6   1    3.40    0.90
   0  -6  -1    4.90    0.70
   0   6   2 3363.70   62.50
   0  -6  -2 3429.20   56.00
   0   6   3   28.40    0.80
   0  -6  -3   29.20    1.40
   0   6   4 2827.40   40.50
   0  -6  -4 2948.00   69.50
   0   6   5  712.30   12.60
   0  -6  -5  747.90   19.50
   0   6   6 3596.90   58.90
   0  -6  -6 3804.10   88.80
   0   6   7  619.90   13.10
   0  -6  -7  624.60   17.10
   0   6   8 2720.20   51.90
   0  -6  -8 2865.10   70.70
   0   6   9  449.20   10.00
   0  -6  -9  454.90   13.00
   0   6  10 1496.00   31.10
   0  -6 -10 1628.50   41.90
   0   6  11  295.30    8.50
   0  -6 -11  290.20    8.60
   0   6  12  385.50   11.70
   0  -6 -12  399.70   11.70
   0   6  13  217.00    7.30
   0  -6 -13  209.10    7.00
   0   6  14  255.20   11.40
   0  -6 -14  255.90    8.50
   0   6  15  108.30    7.50
   0  -6 -15  111.20    5.30
   0   6  16  150.50   10.20
   0  -6 -16  132.50    5.80
   0   6  17    0.10    2.80
   0  -6 -17    6.20    2.90
   0   7 -16   24.00    4.10
   0   7 -15  126.00    8.80
   0   7 -14  132.90    7.90
   0  -7  14  129.80    7.80
   0   7 -13   58.00    4.70
   0  -7  13   45.80    4.30
   0   7 -12  471.00   19.20
   0  -7  12  463.80   19.00
   0   7 -11  150.00    7.60
   0  -7  11  153.10    7.00
   0   7 -10  890.60   32.10
   0  -7  10  933.10   33.60
   0   7  -9  674.30   17.90
   0  -7   9  692.90   24.40
   0   7  -8 1062.40   27.10
   0  -7   8 1099.80   39.50
   0   7  -7  893.80   22.60
   0  -7   7  879.50   22.50
   0   7  -6 1021.60   26.20
   0  -7   6 1031.00   21.00
   0   7  -5  830.90   20.00
   0  -7   5  838.80   16.90
   0   7  -4  539.90   14.40
   0  -7   4  571.20   11.90
   0   7  -3 1074.60   25.90
   0  -7   3 1066.20   18.40
   0   7  -2  336.50    7.20
   0  -7   2  330.50    6.20
   0   7  -1 2557.20   59.20
   0  -7   1 2641.70   38.70
   0   7   0   26.60    1.60
   0  -7   0   31.80    1.40
   0   7   1 2142.60   50.10
   0  -7  -1 2182.20   36.90
   0   7   2  579.20   15.20
   0  -7  -2  594.40   12.70
   0   7   3  594.70   13.10
   0  -7  -3  570.00   13.00
   0   7   4  607.30   13.00
   0  -7  -4  613.10   17.00
   0   7   5  431.60    7.40
   0  -7  -5  382.50    9.60
   0   7   6 1094.60   18.80
   0  -7  -6 1116.20   29.30
   0   7   7  489.30   11.80
   0  -7  -7  454.90   14.80
   0   7   8  783.60   16.80
   0  -7  -8  751.60   20.20
   0   7   9  309.00    7.50
   0  -7  -9  290.00    9.40
   0   7  10  774.60   20.90
   0  -7 -10  730.70   19.80
   0   7  11   65.20    3.50
   0  -7 -11   78.80    4.10
   0   7  12  225.30    7.00
   0  -7 -12  234.60    7.60
   0   7  13  115.00    4.50
   0  -7 -13  118.10    4.80
   0   7  14   56.00    3.80
   0  -7 -14   65.70    4.10
   0   7  15  229.70    9.40
   0  -7 -15  227.60    9.40
   0   7  16   19.90    3.90
   0  -7 -16   36.20    2.60
   0   8 -15    5.90    3.30
   0   8 -14  447.90   21.50
   0   8 -13   13.60    3.40
   0   8 -12  526.00   22.10
   0  -8  12  497.10   19.50
   0   8 -11   40.00    3.80
   0  -8  11   36.30    3.50
   0   8 -10  413.40   16.70
   0  -8  10  387.60   16.30
   0   8  -9  102.90    5.30
   0  -8   9  106.70    5.30
   0   8  -8  510.80   21.50
   0  -8   8  434.50   18.60
   0   8  -7    2.60    1.10
   0  -8   7   -0.50    1.80
   0   8  -6  110.20    5.00
   0  -8   6   98.80    4.10
   0   8  -5   34.30    2.60
   0  -8   5   32.40    1.60
   0   8  -4   65.30    4.80
   0  -8   4   59.80    2.30
   0   8  -3   59.50    1.90
   0  -8   3   58.70    2.00
   0   8  -2   49.20    1.70
   0  -8   2   47.60    1.70
   0   8  -1  162.90    4.90
   0  -8   1  180.40    3.30
   0   8   0   95.70    3.40
   0  -8   0   94.70    2.40
   0   8   1  157.80    5.00
   0  -8  -1  152.00    3.70
   0   8   2  132.00    4.50
   0  -8  -2  140.40    3.30
   0   8   3   24.70    1.90
   0  -8  -3   15.60    1.50
   0   8   4  216.40    5.10
   0  -8  -4  214.80    6.20
   0   8   5    8.10    1.70
   0  -8  -5    8.50    1.60
   0   8   6  454.90   12.00
   0  -8  -6  476.20   13.00
   0   8   7    1.10    0.50
   0  -8  -7    5.50    1.80
   0   8   8  727.60   15.30
   0  -8  -8  791.80   20.80
   0   8   9   95.00    3.90
   0  -8  -9  102.10    4.40
   0   8  10  582.40   15.90
   0  -8 -10  553.80   15.20
   0   8  11   67.40    3.90
   0  -8 -11   65.90    3.30
   0   8  12  522.20   15.90
   0  -8 -12  541.10   15.40
   0   8  13   11.00    2.00
   0  -8 -13   -0.80    2.00
   0   8  14  304.80   17.90
   0  -8 -14  259.90   10.40
   0   8  15   -9.20    4.00
   0  -8 -15   -1.80    2.20
   0   9 -14   41.30    4.10
   0   9 -13   74.70    5.70
   0   9 -12    5.70    2.50
   0   9 -11   49.00    4.50
   0   9 -10   13.90    2.90
   0  -9  10    8.10    2.30
   0   9  -9   44.60    3.90
   0  -9   9   44.90    3.50
   0   9  -8   91.70    5.10
   0  -9   8   66.80    4.00
   0   9  -7  121.20    5.90
   0  -9   7   97.30    5.20
   0   9  -6  210.40    9.00
   0  -9   6  229.40    7.30
   0   9  -5  291.10    8.70
   0  -9   5  269.10    6.50
   0   9  -4   25.70    1.40
   0  -9   4   31.00    1.90
   0   9  -3  368.60    8.10
   0  -9   3  381.10    8.10
   0   9  -2    5.20    1.10
   0  -9   2    3.10    0.70
   0   9  -1  159.60    5.10
   0  -9   1  170.70    4.40
   0   9   0    1.90    1.10
   0  -9   0    2.20    1.00
   0   9   1  183.20    5.70
   0  -9  -1  185.20    4.60
   0   9   2   15.20    1.50
   0  -9  -2   23.50    1.60
   0   9   3  249.40   11.90
   0  -9  -3  245.90    6.60
   0  -9  -4   69.60    3.10
   0   9   5  112.00    5.50
   0  -9  -5   96.60    6.80
   0   9   6  161.40    5.90
   0  -9  -6  160.60    6.30
   0   9   7   13.30    1.80
   0  -9  -7   21.40    2.90
   0   9   8   81.30    3.50
   0  -9  -8   74.30    4.90
   0   9   9   24.00    2.00
   0  -9  -9   19.70    2.30
   0   9  10   35.90    2.40
   0  -9 -10   30.10    2.50
   0   9  11   65.60    5.60
   0  -9 -11   68.40    3.60
   0   9  12   36.00    5.00
   0  -9 -12   36.60    4.20
   0   9  13  124.10    8.00
   0  -9 -13  139.90    6.20
   0  10 -12   74.20    5.40
   0  10 -11  310.70   14.80
   0  10 -10   89.40    6.40
   0  10  -9  379.60   19.20
   0  10  -8   64.10    5.00
   0  10  -7  389.30   11.40
   0 -10   7  385.10   17.00
   0  10  -6  443.60   12.40
   0 -10   6  458.10   12.90
   0  10  -5  287.90   13.10
   0 -10   5  297.10    9.30
   0  10  -4  768.40   29.70
   0 -10   4  726.50   19.40
   0 -10   3   79.90    3.80
   0  10  -2  743.40   26.90
   0 -10   2  733.00   18.50
   0  10  -1   27.20    2.70
   0 -10   1   19.60    1.80
   0  10   0  482.70   17.70
   0 -10   0  464.40   12.70
   0  10   1   74.20    4.40
   0 -10  -1   63.50    2.80
   0  10   2  857.70   31.70
   0 -10  -2  820.80   17.60
   0  10   3  163.80    8.20
   0 -10  -3  181.70    4.90
   0  10   4 1030.90   36.50
   0 -10  -4  961.90   21.00
   0  10   5  385.20   16.00
   0 -10  -5  356.00    9.10
   0  10   6  378.80   16.30
   0 -10  -6  363.80   11.50
   0  10   7  527.20   15.10
   0 -10  -7  496.40   14.80
   0  10   8  135.80    5.30
   0 -10  -8  143.70    5.70
   0  10   9  391.90   20.90
   0 -10  -9  374.50   14.40
   0  10  10   73.90    6.60
   0 -10 -10   59.50    4.10
   0  10  11  285.40   15.70
   0 -10 -11  249.80   10.30
   0  11 -10   46.20    4.30
   0  11  -9  243.60   13.00
   0  11  -8   15.30    3.20
   0  11  -7  639.40   30.30
   0  11  -6   23.60    3.50
   0 -11   6   12.10    4.20
   0  11  -5 1663.80   72.40
   0 -11   5 1443.50   65.00
   0  11  -4   41.00    4.00
   0  11  -3 1968.30   66.80
   0  11  -2   61.80    5.20
   0 -11   2   59.90    3.90
   0  11  -1 1941.50   66.30
   0 -11   1 1898.60   46.30
   0  11   0   24.80    2.90
   0 -11   0   14.70    2.20
   0  11   1 1727.00   58.90
   0 -11  -1 1729.90   42.60
   0  11   2   36.30    4.60
   0 -11  -2   45.50    2.60
   0  11   3 1945.50   69.30
   0 -11  -3 1852.50   38.60
   0  11   4   10.40    2.80
   0 -11  -4   17.80    1.90
   0  11   5 1286.10   59.10
   0 -11  -5 1202.30   41.00
   0  11   6    2.20    2.60
   0 -11  -6    2.40    1.60
   0  11   7  678.40   32.60
   0 -11  -7  599.80   20.40
   0  11   8   23.80    4.20
   0 -11  -8   24.50    2.60
   0  11   9  292.20   16.10
   0 -11  -9  293.00   11.50
   0  12  -7  185.50   10.40
   0  12  -6  475.10   23.20
   0 -12   6  395.40   21.20
   0  12  -5  137.60    9.20
   0  12  -4  497.70   22.80
   0  12  -3   42.70    5.60
   0 -12   3   11.10    4.80
   0  12  -2  572.40   26.80
   0 -12   2  608.50   28.60
   0  12  -1   46.10    5.90
   0 -12   1   43.20    6.70
   0  12   0  676.30   30.20
   0 -12   0  537.70   26.60
   0  12   1   44.50    5.80
   0 -12  -1   43.10    5.70
   0  12   2  545.50   24.40
   0 -12  -2  491.30   24.80
   0  12   3   54.50    6.90
   0 -12  -3   21.10    5.40
   0  12   4  324.40   17.50
   0 -12  -4  287.90   16.80
   0  12   5  231.90   13.20
   0 -12  -5  170.90   10.80
   0  12   6  315.40   17.90
   0 -12  -6  280.10   15.90
   1 -12  -4    8.90    2.90
  -1  12   4   -0.20    2.90
   1 -12  -3    1.10    2.60
  -1  12   3    5.20    2.30
   1 -12  -2   19.80    4.30
  -1  12   2    0.10    1.80
   1 -12  -1    7.20    4.30
  -1  12   1   16.70    2.60
   1 -12   0   -4.40    3.90
  -1  12   0    2.40    2.00
   1 -12   1    5.70    3.70
  -1  12  -1    4.80    2.60
   1 -12   2    2.80    3.70
  -1  12  -2   -1.60    2.50
   1 -12   3    9.10    3.40
  -1  12  -3   18.10    3.20
   1 -12   4   12.50    3.20
  -1  12  -4    0.60    2.60
   1 -12   5   12.90    4.20
  -1  12  -5    4.00    2.70
   1 -11  -8   -4.90    2.50
  -1  11   8   -3.00    3.10
   1 -11  -7   -1.70    3.80
  -1  11   7    3.50    3.40
   1 -11  -6   15.90    3.80
  -1  11   6    1.30    2.20
   1 -11  -5   -9.50    3.60
  -1  11   5    1.10    3.40
   1 -11  -4    3.40    1.90
  -1  11   4    7.90    2.40
   1 -11  -3   -5.10    2.30
  -1  11   3    1.70    1.90
   1 -11  -2    7.10    1.70
  -1  11   2    9.00    2.40
   1 -11  -1   -2.30    1.70
  -1  11   1   -2.40    1.80
   1 -11   0    0.00    1.80
  -1  11   0    3.00    2.50
  -1  11  -1    2.60    1.80
   1 -11   2    2.90    3.50
  -1  11  -2    0.20    2.50
   1 -11   3    2.10    2.90
  -1  11  -3   -5.20    2.40
   1 -11   4   10.00    3.20
  -1  11  -4    7.50    2.50
   1 -11   5    3.50    3.80
  -1  11  -5   14.50    2.80
   1 -11   6    5.70    2.90
  -1  11  -6    6.20    2.70
   1 -11   7    6.00    3.80
  -1  11  -7   -2.90    2.40
  -1  11  -8    2.30    2.20
  -1  11  -9   10.00    2.60
   1 -10 -10   10.70    2.80
  -1  10  10    4.60    2.50
   1 -10  -9    0.30    1.60
  -1  10   9   -1.40    2.30
   1 -10  -8    2.40    1.60
  -1  10   8    2.70    1.60
   1 -10  -7    5.40    1.60
  -1  10   7   -6.20    2.20
   1 -10  -6    0.50    1.50
  -1  10   6    3.30    1.80
   1 -10  -5    1.80    1.30
  -1  10   5    4.40    2.30
   1 -10  -4    2.60    1.40
  -1  10   4   -2.40    2.20
   1 -10  -3    9.60    1.60
  -1  10   3   -1.20    2.50
   1 -10  -2    2.20    1.10
  -1  10   2    3.00    2.10
   1 -10  -1    2.30    1.30
   1 -10   0   -1.30    1.20
  -1  10   0    6.50    3.10
   1 -10   1   19.50    1.70
  -1  10  -1   26.40    3.10
   1 -10   2   10.30    1.80
  -1  10  -2    3.70    2.40
   1 -10   3    1.60    2.60
  -1  10  -3    1.80    2.30
   1 -10   4    9.30    4.10
  -1  10  -4    3.10    2.00
   1 -10   5   15.20    2.90
  -1  10  -5    6.80    2.00
   1 -10   6   11.80    3.90
  -1  10  -6   13.50    2.70
   1 -10   7    2.50    2.70
  -1  10  -7    0.80    2.10
  -1  10  -8   -0.20    1.40
  -1  10  -9    5.50    2.50
  -1  10 -10    0.40    1.30
  -1  10 -11    2.30    2.50
   1  -9 -12    5.20    2.30
  -1   9  12    4.80    3.70
   1  -9 -11    6.40    1.90
  -1   9  11    1.90    2.10
   1  -9 -10   11.20    2.20
  -1   9  10    8.10    1.90
   1  -9  -9    4.40    2.20
  -1   9   9    8.70    1.50
   1  -9  -8    9.80    2.70
  -1   9   8    8.80    1.90
   1  -9  -7    2.80    1.90
  -1   9   7   10.50    1.90
   1  -9  -6    1.50    1.30
  -1   9   6    1.20    1.60
   1  -9  -5    4.10    2.30
  -1   9   5    7.20    1.80
   1  -9  -4   16.40    1.80
  -1   9   4   24.20    3.40
   1  -9  -3    5.00    1.30
  -1   9   3   10.00    3.00
   1  -9  -2   -0.70    1.20
  -1   9   2    0.80    1.60
   1  -9  -1    0.30    1.50
  -1   9   1    6.80    2.60
   1  -9   0   15.60    1.70
  -1   9   0   16.40    2.60
   1  -9   1   10.40    1.30
  -1   9  -1    9.00    2.50
   1  -9   2    2.00    1.30
  -1   9  -2    1.10    2.00
   1  -9   3    1.00    1.60
  -1   9  -3   -1.80    2.00
   1  -9   4    4.00    1.50
  -1   9  -4    1.40    1.00
   1  -9   5    1.10    1.40
  -1   9  -5    1.70    1.10
   1  -9   6    4.50    1.40
  -1   9  -6    7.10    1.40
   1  -9   7   16.10    1.80
  -1   9  -7   11.20    1.60
  -1   9  -8    3.10    2.30
  -1   9  -9    4.70    1.70
  -1   9 -10   10.90    2.60
  -1   9 -11   11.60    2.80
  -1   9 -12    4.30    2.40
  -1   9 -13    3.90    2.50
   1  -8 -14    4.50    1.80
  -1   8  14    8.80    4.00
   1  -8 -13    4.30    1.90
  -1   8  13    8.20    2.40
   1  -8 -12   -1.20    1.50
  -1   8  12   -0.60    2.90
   1  -8 -11    5.60    2.30
  -1   8  11   16.50    2.30
   1  -8 -10    4.40    1.80
  -1   8  10    7.30    1.70
   1  -8  -9    6.10    1.70
  -1   8   9    2.00    2.00
   1  -8  -8   13.80    1.90
  -1   8   8   19.60    2.00
   1  -8  -7   14.80    1.80
  -1   8   7   20.10    1.90
   1  -8  -6   -3.70    2.30
  -1   8   6    6.40    1.70
   1  -8  -5    1.20    1.20
  -1   8   5    6.70    1.10
   1  -8  -4    8.30    1.40
  -1   8   4    5.60    1.00
   1  -8  -3    0.40    1.10
  -1   8   3    1.00    0.90
   1  -8  -2   -1.20    1.20
  -1   8   2    0.20    1.10
   1  -8  -1   20.30    1.60
  -1   8   1   15.00    1.60
   1  -8   0    0.80    1.20
  -1   8   0    3.10    1.00
   1  -8   1    5.50    1.30
  -1   8  -1    7.10    1.20
   1  -8   2    5.00    0.60
  -1   8  -2    6.00    1.20
   1  -8   3   22.50    1.20
  -1   8  -3   20.70    1.20
   1  -8   4    1.90    0.80
  -1   8  -4    0.50    0.80
   1  -8   5    4.30    0.90
  -1   8  -5    3.60    0.80
   1  -8   6    1.50    1.10
  -1   8  -6    3.30    1.30
   1  -8   7    3.80    1.30
  -1   8  -7    0.60    2.10
   1  -8   8    8.00    1.60
  -1   8  -8    3.70    2.30
   1  -8   9   -1.60    1.70
  -1   8  -9   -5.80    2.20
  -1   8 -10    1.80    2.40
  -1   8 -11   -8.00    2.30
  -1   8 -12   16.60    3.00
  -1   8 -13   -4.90    2.30
  -1   8 -14    0.20    2.40
  -1   8 -15    3.90    1.90
   1  -7 -15   -1.20    1.70
  -1   7  15   -3.10    2.80
   1  -7 -14   -3.60    2.00
  -1   7  14    4.30    2.00
   1  -7 -13   21.50    2.30
  -1   7  13    8.20    2.00
   1  -7 -12   -1.50    2.10
  -1   7  12   -3.00    1.90
   1  -7 -11   -0.20    1.60
  -1   7  11    0.90    1.70
   1  -7 -10    6.20    2.20
  -1   7  10   -1.80    1.80
   1  -7  -9    9.70    1.80
  -1   7   9    2.10    1.50
   1  -7  -8    4.50    1.70
  -1   7   8    8.20    1.50
   1  -7  -7   11.90    1.80
  -1   7   7   18.20    0.90
   1  -7  -6   56.80    2.80
  -1   7   6   46.90    1.90
   1  -7  -5    1.40    0.60
  -1   7   5    0.60    0.80
   1  -7  -4   15.70    0.90
  -1   7   4   18.30    1.30
   1  -7  -3   13.90    1.30
  -1   7   3   20.10    1.90
   1  -7  -2   85.80    3.20
  -1   7   2   90.00    2.70
   1  -7  -1   -1.30    0.90
  -1   7   1    1.70    1.20
   1  -7   0   34.60    1.40
  -1   7   0   31.90    1.80
   1  -7   1    7.40    0.50
  -1   7  -1    4.20    0.90
   1  -7   2   33.50    1.20
  -1   7  -2   31.80    1.20
   1  -7   3   -2.20    0.70
  -1   7  -3   -1.70    0.70
   1  -7   4    1.10    0.80
  -1   7  -4    2.00    0.80
   1  -7   5    4.70    1.50
  -1   7  -5    3.60    1.10
   1  -7   6    2.40    0.80
  -1   7  -6    2.90    1.00
   1  -7   7    8.30    1.10
  -1   7  -7   13.90    1.40
   1  -7   8   16.10    1.70
  -1   7  -8    9.30    1.30
   1  -7   9   13.70    2.20
  -1   7  -9    3.80    2.00
   1  -7  10    0.60    1.70
  -1   7 -10   -3.60    2.30
   1  -7  11   26.20    3.00
  -1   7 -11   34.10    3.40
   1  -7  12   15.90    2.60
  -1   7 -12    7.10    2.40
  -1   7 -13   20.50    3.10
  -1   7 -14    7.00    2.80
  -1   7 -15   13.80    2.50
  -1   7 -16    5.10    2.80
   1  -6 -16   10.90    3.90
  -1   6  16    1.10    2.40
   1  -6 -15    5.00    3.60
  -1   6  15    0.50    1.60
   1  -6 -14   -7.30    3.20
  -1   6  14    2.40    2.20
  -1   6  13   15.70    2.10
   1  -6 -12   -1.20    2.00
  -1   6  12    4.40    2.70
   1  -6 -11    0.30    2.20
  -1   6  11   12.00    2.00
   1  -6 -10    0.90    2.50
  -1   6  10    3.30    1.10
   1  -6  -9    5.50    1.80
  -1   6   9    7.20    1.00
   1  -6  -8    5.90    1.60
  -1   6   8    3.60    0.90
   1  -6  -7   16.00    2.00
  -1   6   7   18.20    1.10
   1  -6  -6    6.00    1.80
  -1   6   6    6.80    0.70
   1  -6  -5    1.60    1.60
  -1   6   5    3.00    0.40
   1  -6  -4   -3.30    2.80
  -1   6   4    4.00    1.00
   1  -6  -3    3.60    0.60
  -1   6   3    4.50    0.90
   1  -6  -2    3.20    1.10
  -1   6   2    3.70    1.00
   1  -6  -1    5.70    1.10
  -1   6   1    6.50    1.10
   1  -6   0   12.20    0.80
  -1   6   0   14.60    1.40
   1  -6   1    1.80    0.40
  -1   6  -1    0.00    1.00
   1  -6   2    7.20    0.60
  -1   6  -2    7.60    0.80
   1  -6   3    2.80    0.60
  -1   6  -3    4.30    0.60
   1  -6   4   19.40    0.90
  -1   6  -4   23.90    1.40
   1  -6   5   -0.10    0.90
  -1   6  -5   -0.90    0.90
   1  -6   6    1.80    0.70
  -1   6  -6    0.30    0.90
   1  -6   7   -3.90    1.30
  -1   6  -7   -0.60    0.80
   1  -6   8    4.70    1.90
  -1   6  -8    5.20    2.00
  -1   6  -9    2.10    1.20
   1  -6  10    7.90    2.10
  -1   6 -10    5.10    1.40
   1  -6  11   10.10    1.80
  -1   6 -11    6.90    1.90
   1  -6  12   -2.60    1.50
  -1   6 -12    4.70    1.80
   1  -6  13    0.80    2.20
   1  -6  14   22.50    3.00
  -1   6 -14   22.10    3.20
  -1   6 -15   -3.60    1.60
  -1   6 -16   15.60    3.20
  -1   6 -17   -1.20    2.00
   1  -5 -17   14.30    4.20
  -1   5  17    2.00    3.80
   1  -5 -16   11.90    3.70
  -1   5  16   -0.20    4.10
   1  -5 -15   30.50    3.50
  -1   5  15   22.20    3.80
   1  -5 -14   13.20    2.70
  -1   5  14    6.80    2.80
   1  -5 -13   11.10    2.60
  -1   5  13   11.20    3.00
   1  -5 -12    9.10    2.40
  -1   5  12   18.60    3.20
   1  -5 -11   30.50    3.80
  -1   5  11   20.00    3.90
   1  -5 -10    1.60    1.80
  -1   5  10    5.90    1.10
   1  -5  -9   40.80    3.50
  -1   5   9   29.60    1.70
   1  -5  -8    9.00    2.00
  -1   5   8    8.20    1.00
   1  -5  -7   29.40    2.50
  -1   5   7   17.80    1.00
   1  -5  -6   -1.90    1.90
  -1   5   6    5.60    0.80
   1  -5  -5    5.50    1.20
  -1   5   5    6.20    0.70
   1  -5  -4   10.40    0.90
  -1   5   4   12.40    0.60
   1  -5  -3   44.80    1.70
  -1   5   3   42.70    1.50
   1  -5  -2    1.70    0.40
  -1   5   2    3.00    0.80
   1  -5  -1   30.30    1.20
  -1   5   1   30.40    1.30
   1  -5   0   18.60    1.00
  -1   5   0   22.10    1.30
   1  -5   1    1.60    0.40
  -1   5  -1    3.40    0.50
   1  -5   2    0.90    0.50
  -1   5  -2    1.30    0.60
   1  -5   3    0.20    0.50
  -1   5  -3   -0.60    0.60
   1  -5   4    1.30    0.60
  -1   5  -4    2.70    0.80
   1  -5   5   61.10    1.80
  -1   5  -5   54.20    1.50
   1  -5   6    2.40    0.60
  -1   5  -6    2.60    0.70
   1  -5   7   15.20    1.20
  -1   5  -7   12.80    1.00
   1  -5   8    2.10    1.10
  -1   5  -8   -2.10    1.00
   1  -5   9   76.40    3.80
  -1   5  -9   76.30    2.70
   1  -5  10    3.20    1.90
  -1   5 -10    2.40    1.20
   1  -5  11   15.70    2.50
  -1   5 -11   14.10    1.60
   1  -5  12    4.20    2.10
  -1   5 -12    5.50    2.70
   1  -5  13   10.80    2.60
  -1   5 -13   21.20    3.20
  -1   5 -14    6.80    2.90
   1  -5  15   -5.10    2.20
  -1   5 -15   -2.50    2.90
  -1   5 -17    7.20    2.50
   1  -4 -17   12.40    4.00
  -1   4  17    3.90    4.30
   1  -4 -16    1.60    2.50
  -1   4  16   -2.20    2.90
   1  -4 -15   36.20    4.20
  -1   4  15   38.60    4.60
   1  -4 -14    1.70    3.40
  -1   4  14   -0.10    3.50
   1  -4 -13    6.50    3.30
  -1   4  13    2.90    3.30
   1  -4 -12   11.40    3.30
  -1   4  12    2.60    3.30
   1  -4 -11   27.50    3.90
  -1   4  11   44.50    4.30
   1  -4 -10   11.60    3.10
  -1   4  10   14.30    1.40
   1  -4  -9   -3.90    1.80
  -1   4   9    2.50    1.10
   1  -4  -8   12.60    2.70
  -1   4   8   18.90    1.20
   1  -4  -7   21.80    2.50
  -1   4   7   10.80    0.90
   1  -4  -6   21.10    2.50
  -1   4   6   21.50    1.00
   1  -4  -5   35.60    1.50
  -1   4   5   33.20    1.00
   1  -4  -4   10.90    0.90
  -1   4   4    6.00    0.60
   1  -4  -3   17.70    1.00
  -1   4   3   16.80    1.10
   1  -4  -2   14.80    0.80
  -1   4   2   14.70    0.90
   1  -4  -1    8.60    0.50
  -1   4   1    8.30    0.90
   1  -4   0   11.10    0.40
  -1   4   0   10.50    0.70
   1  -4   1   13.20    0.60
  -1   4  -1   12.00    0.70
   1  -4   2    3.40    0.50
  -1   4  -2    2.10    0.60
   1  -4   3    0.50    0.40
  -1   4  -3    0.90    0.60
   1  -4   4   40.80    1.10
  -1   4  -4   38.90    1.20
   1  -4   5    5.40    0.70
  -1   4  -5    7.20    0.90
   1  -4   6   -0.60    0.60
  -1   4  -6    2.20    0.60
   1  -4   7   15.50    1.20
  -1   4  -7   21.00    1.20
   1  -4   8   19.90    1.80
  -1   4  -8   24.00    1.20
   1  -4   9    5.30    1.30
  -1   4  -9    5.40    0.70
   1  -4  10   -0.50    1.10
  -1   4 -10    4.40    0.80
   1  -4  11   21.80    2.60
  -1   4 -11   15.00    1.70
   1  -4  12    7.70    2.40
  -1   4 -12   14.30    1.70
   1  -4  13   32.40    3.10
  -1   4 -13   22.90    2.60
   1  -4  14    0.60    2.50
  -1   4 -14   -2.70    2.70
   1  -4  15   17.80    3.10
  -1   4 -15    4.00    3.10
   1  -4  16   -3.10    2.00
  -1   4 -16   -1.30    1.90
   1  -4  17    4.80    2.30
  -1   4 -17   -1.00    3.30
  -1   4 -18   13.30    3.70
   1  -3 -18   12.50    3.20
  -1   3  18   15.70    3.80
   1  -3 -17   -7.50    3.80
  -1   3  17    4.60    4.10
   1  -3 -16   -3.00    2.50
  -1   3  16    4.10    2.90
   1  -3 -15   -6.10    3.30
  -1   3  15    8.20    3.60
   1  -3 -14   28.20    3.80
  -1   3  14   30.80    3.70
   1  -3 -13    5.80    2.20
  -1   3  13    1.20    2.20
   1  -3 -12    9.30    3.20
  -1   3  12    9.10    3.20
   1  -3 -11    6.70    3.10
  -1   3  11   17.90    3.60
   1  -3 -10   48.20    4.10
  -1   3  10   55.60    2.70
   1  -3  -9    4.40    2.60
  -1   3   9    9.20    1.40
   1  -3  -8   13.60    2.00
  -1   3   8    3.90    0.90
   1  -3  -7    3.00    1.10
  -1   3   7    6.30    0.90
   1  -3  -6   65.40    3.50
  -1   3   6   69.60    2.60
   1  -3  -5   16.40    1.40
  -1   3   5   16.70    1.00
   1  -3  -4    9.00    1.10
  -1   3   4    7.60    0.60
   1  -3  -3   24.70    1.20
  -1   3   3   34.10    1.10
   1  -3  -2   44.40    1.40
  -1   3   2   39.50    1.70
   1  -3  -1   47.30    1.10
  -1   3   1   46.50    1.40
   1  -3   0   19.70    0.50
  -1   3   0   19.30    0.90
   1  -3   1   29.70    0.80
  -1   3  -1   30.80    0.90
   1  -3   2   66.60    1.30
  -1   3  -2   63.60    1.60
   1  -3   3    3.50    0.60
  -1   3  -3    2.00    0.50
   1  -3   4   41.10    1.30
  -1   3  -4   41.70    1.10
   1  -3   5    2.20    0.60
  -1   3  -5    2.50    0.60
   1  -3   6   44.30    1.70
  -1   3  -6   40.70    1.20
   1  -3   7   25.70    1.30
  -1   3  -7   22.90    1.00
   1  -3   8    4.60    0.70
  -1   3  -8    5.60    0.80
   1  -3   9   -0.90    1.10
  -1   3  -9    1.30    0.80
   1  -3  10    7.80    2.00
  -1   3 -10    4.60    0.80
   1  -3  11   25.70    2.80
  -1   3 -11   16.50    1.20
  -1   3 -12    1.10    1.00
   1  -3  13   -0.90    1.50
  -1   3 -13    2.60    1.20
   1  -3  14    0.80    1.70
  -1   3 -14    1.60    1.90
   1  -3  15    2.50    2.70
  -1   3 -15    4.20    2.90
   1  -3  16    1.30    2.80
  -1   3 -16    7.40    3.60
   1  -3  17   14.10    3.70
  -1   3 -17    4.20    3.80
   1  -3  18    0.60    3.50
  -1   3 -18   -7.30    3.40
   1  -2 -18   -4.90    2.70
  -1   2  18   -2.40    2.70
   1  -2 -17   15.50    4.10
  -1   2  17   26.90    4.70
   1  -2 -16   10.10    4.20
  -1   2  16   -4.40    3.80
   1  -2 -15   -2.80    3.20
   1  -2 -14    2.30    2.10
  -1   2  14   11.20    3.50
   1  -2 -13   11.80    3.60
  -1   2  13   12.50    3.70
   1  -2 -12   24.80    3.60
  -1   2  12   26.30    2.20
   1  -2 -11   14.50    3.10
  -1   2  11    9.80    3.00
   1  -2 -10    8.50    2.60
  -1   2  10    5.40    1.10
   1  -2  -9   10.60    2.00
  -1   2   9   15.90    1.20
   1  -2  -8    0.00    1.00
  -1   2   8    0.20    0.90
   1  -2  -7   12.70    1.20
  -1   2   7   13.30    1.40
   1  -2  -6   14.10    1.30
  -1   2   6   14.40    1.00
   1  -2  -5    1.70    0.80
  -1   2   5    0.80    0.70
   1  -2  -4   27.20    1.40
  -1   2   4   28.60    1.10
   1  -2  -3   33.90    1.40
  -1   2   3   31.70    1.00
   1  -2  -2   22.10    1.10
  -1   2   2   23.10    1.00
   1  -2  -1    8.60    0.40
  -1   2   1   10.10    0.80
   1  -2   0   35.90    1.20
  -1   2   0   33.30    1.50
   1  -2   1   27.40    0.70
  -1   2  -1   25.70    0.80
   1  -2   2    9.70    0.50
  -1   2  -2    7.90    0.90
   1  -2   3   18.90    0.70
  -1   2  -3   23.30    1.00
   1  -2   4   22.20    0.80
  -1   2  -4   24.50    0.80
   1  -2   5   17.30    0.90
  -1   2  -5   18.50    0.80
   1  -2   6   14.60    1.10
  -1   2  -6   12.80    0.80
   1  -2   7    8.70    0.90
  -1   2  -7    6.80    0.70
   1  -2   8   43.70    1.80
  -1   2  -8   37.80    1.40
   1  -2   9   12.90    1.10
  -1   2  -9   14.70    1.00
   1  -2  10   -2.10    2.00
  -1   2 -10    2.50    0.70
   1  -2  11   -6.10    2.10
  -1   2 -11    1.90    0.80
   1  -2  12   53.90    3.50
  -1   2 -12   43.60    1.80
   1  -2  13   24.10    2.80
  -1   2 -13   15.40    1.50
   1  -2  14   -3.20    2.20
  -1   2 -14    2.80    2.30
   1  -2  15    2.40    2.10
  -1   2 -15    2.30    2.10
   1  -2  16   14.60    2.80
  -1   2 -16    8.70    2.60
  -1   2 -17    1.90    2.60
   1  -2  18   14.20    2.80
  -1   2 -18   10.30    3.00
   1  -2  19   -4.80    2.20
  -1   2 -19   -3.30    2.60
   1  -1 -19   10.10    4.30
  -1   1  19    5.00    4.10
   1  -1 -18    2.90    2.70
  -1   1  18    5.60    3.20
   1  -1 -17    8.90    4.10
  -1   1  17    6.50    3.90
   1  -1 -16   13.20    4.10
  -1   1  16    4.20    3.90
   1  -1 -15    8.80    2.70
  -1   1  15    7.70    3.10
   1  -1 -14    4.80    3.40
  -1   1  14    7.40    3.50
   1  -1 -13   21.70    3.90
  -1   1  13    9.20    3.50
   1  -1 -12    0.40    2.00
  -1   1  12    1.90    2.10
   1  -1 -11    4.90    3.20
  -1   1  11    6.50    3.00
   1  -1 -10   -0.30    1.80
  -1   1  10    6.50    2.00
   1  -1  -9    1.90    1.30
  -1   1   9    0.70    1.00
   1  -1  -8   28.50    2.40
  -1   1   8   26.60    1.40
   1  -1  -7    9.50    1.20
  -1   1   7    4.50    1.00
   1  -1  -6    1.70    1.10
  -1   1   6    0.30    0.90
   1  -1  -5    2.50    1.40
  -1   1   5    2.20    0.70
   1  -1  -4    2.30    0.90
  -1   1   4    4.50    0.80
   1  -1  -3    5.00    0.60
  -1   1   3    4.10    0.60
   1  -1  -2   55.50    1.60
  -1   1   2   51.90    1.30
   1  -1  -1    9.40    0.60
  -1   1   1    6.30    0.90
   1  -1   0    0.50    0.20
   1  -1   1   -0.10    0.10
   1  -1   2   38.10    1.00
  -1   1  -2   37.60    1.10
   1  -1   3    4.30    0.50
  -1   1  -3    8.00    0.70
   1  -1   4   19.40    0.90
  -1   1  -4   19.30    0.70
   1  -1   5    9.90    0.70
  -1   1  -5    9.40    0.80
   1  -1   6    5.90    0.90
  -1   1  -6    4.70    1.00
   1  -1   7   13.50    1.20
  -1   1  -7   18.00    0.90
   1  -1   8   19.70    1.40
  -1   1  -8   21.40    1.40
   1  -1   9   11.30    1.10
  -1   1  -9   13.40    2.20
   1  -1  10    6.70    2.30
  -1   1 -10    2.20    1.20
   1  -1  11   11.10    2.50
  -1   1 -11    4.50    1.10
   1  -1  12    5.90    2.70
  -1   1 -12    1.70    1.40
   1  -1  13   56.30    4.30
  -1   1 -13   43.80    4.10
   1  -1  14    9.70    2.30
  -1   1 -14   11.40    3.30
  -1   1 -15   -2.60    2.30
   1  -1  16    3.20    2.10
  -1   1 -16    8.60    2.40
   1  -1  17   76.30    5.40
  -1   1 -17   53.40    5.00
   1  -1  18    0.30    3.60
  -1   1 -18   24.80    4.80
   1  -1  19   -6.70    3.30
  -1   1 -19    1.40    3.90
  -1   0  19   -2.80    2.10
   1   0 -18   25.00    3.70
  -1   0  18   38.80    4.80
   1   0 -17   19.50    4.10
  -1   0  17   10.60    3.90
   1   0 -16   -1.80    4.00
  -1   0  16   12.80    3.80
   1   0 -15    3.70    3.40
  -1   0  15    2.60    2.50
   1   0 -14   42.40    4.50
  -1   0  14   57.30    4.60
   1   0 -13    6.10    2.30
  -1   0  13   14.90    2.80
   1   0 -12   19.70    3.60
  -1   0  12   18.00    3.60
   1   0 -11   38.70    4.10
  -1   0  11   56.20    4.50
   1   0 -10   85.30    5.50
  -1   0  10  107.60    5.70
   1   0  -9    4.60    1.10
  -1   0   9    5.20    0.90
   1   0  -8    7.00    1.20
  -1   0   8    8.80    0.90
   1   0  -7    9.50    1.10
  -1   0   7    9.60    0.90
   1   0  -6   36.60    1.70
  -1   0   6   33.80    1.30
   1   0  -5   12.70    1.10
  -1   0   5   13.20    0.90
   1   0  -4   13.00    0.80
  -1   0   4   12.30    0.80
   1   0  -3   12.90    0.90
  -1   0   3   14.00    1.10
   1   0  -2   11.90    0.80
  -1   0   2   10.00    1.10
   1   0  -1   11.10    0.80
  -1   0   1    6.90    0.80
   1   0   0   -0.20    0.30
  -1   0   0    1.60    0.30
  -1   0  -1    4.60    0.40
   1   0   2   -0.90    0.30
  -1   0  -2    0.60    0.50
   1   0   3    2.90    0.80
  -1   0  -3    3.90    0.70
   1   0   4    5.20    1.00
  -1   0  -4    0.10    0.80
   1   0   5    0.90    0.60
  -1   0  -5    1.10    0.70
   1   0   6   22.50    1.30
  -1   0  -6   21.20    1.40
   1   0   7    9.80    1.20
  -1   0  -7   13.10    1.30
   1   0   8    2.20    1.00
  -1   0  -8    0.20    1.00
   1   0   9    9.30    1.20
  -1   0  -9    9.00    1.20
   1   0  10    5.80    1.90
  -1   0 -10    8.10    2.10
   1   0  11    8.40    2.40
  -1   0 -11    2.30    1.10
   1   0  12   -2.70    1.80
  -1   0 -12    4.70    2.40
   1   0  13   14.10    3.00
  -1   0 -13    2.30    2.80
   1   0  14    1.20    2.70
  -1   0 -14   12.00    3.50
   1   0  15    6.00    2.60
  -1   0 -15   -4.20    2.30
   1   0  16    0.50    1.60
  -1   0 -16   12.10    3.70
   1   0  17   19.40    4.10
  -1   0 -17    9.60    4.10
   1   0  18    6.20    2.70
  -1   0 -18    3.10    2.40
   1   0  19   -5.00    2.40
  -1   0 -19    1.50    2.50
   1   1 -19   14.50    4.40
  -1  -1  19   12.40    4.90
   1   1 -18  -12.50    4.00
  -1  -1  18    6.40    4.10
   1   1 -17    5.00    4.30
  -1  -1  17    0.80    3.80
   1   1 -16    0.10    3.60
  -1  -1  16    1.40    3.60
   1   1 -15   38.80    4.30
  -1  -1  15   25.60    3.90
   1   1 -14   16.00    3.70
  -1  -1  14   22.50    3.60
   1   1 -13   -0.50    3.20
  -1  -1  13   -0.80    3.10
   1   1 -12   32.20    3.90
  -1  -1  12   46.90    4.30
   1   1 -11   74.40    4.70
  -1  -1  11   66.00    4.70
   1   1 -10   14.70    1.70
  -1  -1  10   18.80    3.10
   1   1  -9   14.30    1.20
  -1  -1   9   16.60    1.20
   1   1  -8   39.40    2.00
  -1  -1   8   37.60    1.60
   1   1  -7   53.70    2.20
  -1  -1   7   49.10    2.20
   1   1  -6   14.70    1.60
  -1  -1   6   13.50    0.90
   1   1  -5   23.80    2.30
  -1  -1   5   21.30    1.40
   1   1  -4   57.70    1.60
  -1  -1   4   53.30    1.50
   1   1  -3   52.80    1.60
  -1  -1   3   53.20    1.90
  -1  -1   2   -0.60    0.40
   1   1  -1    6.60    0.60
  -1  -1   1    8.50    0.90
   1   1   0    1.90    0.40
  -1  -1   0    2.00    0.50
  -1  -1  -1    4.90    0.30
   1   1   2    6.00    0.80
  -1  -1  -2    6.30    0.40
   1   1   3    0.20    0.50
  -1  -1  -3    2.70    0.70
   1   1   4   14.30    0.90
  -1  -1  -4   15.90    1.00
   1   1   5   42.60    1.60
  -1  -1  -5   33.80    1.40
   1   1   6   18.80    1.30
  -1  -1  -6   16.80    1.30
   1   1   7   29.10    1.50
  -1  -1  -7   26.60    2.30
   1   1   8    0.20    0.90
  -1  -1  -8    4.30    1.50
   1   1   9    3.20    1.00
  -1  -1  -9    3.10    0.90
   1   1  10   15.60    2.00
  -1  -1 -10   13.80    1.50
   1   1  11   -6.30    2.60
  -1  -1 -11    2.90    1.80
   1   1  12   24.00    2.10
  -1  -1 -12   31.90    3.70
   1   1  13   -3.80    1.40
  -1  -1 -13    3.70    2.30
   1   1  14    3.70    3.40
  -1  -1 -14    0.60    3.20
   1   1  15    0.70    2.30
  -1  -1 -15    7.20    2.70
   1   1  16   17.90    4.00
   1   1  17   10.10    3.90
  -1  -1 -17    3.70    3.60
   1   1  18    5.10    2.80
  -1  -1 -18   -2.40    2.70
   1   1  19   -5.70    3.80
  -1  -1 -19   -5.30    3.40
   1   2 -19   11.30    3.00
  -1  -2  19   16.20    3.30
   1   2 -18   -4.00    4.00
  -1  -2  18   -5.60    2.90
   1   2 -17    5.20    3.80
  -1  -2  17    3.40    3.80
   1   2 -15   28.00    4.00
  -1  -2  15   19.20    3.80
   1   2 -13    4.50    3.20
  -1  -2  13   -2.90    2.70
   1   2 -12   -4.90    2.00
  -1  -2  12    6.30    2.10
   1   2 -11   24.50    3.50
  -1  -2  11   28.20    3.70
   1   2 -10   20.90    3.30
  -1  -2  10   20.50    2.80
   1   2  -9    9.50    1.10
   1   2  -8    8.10    1.20
  -1  -2   8    5.80    0.80
   1   2  -7   33.50    1.60
  -1  -2   7   37.70    1.50
   1   2  -6    5.60    1.20
  -1  -2   6    2.50    0.80
   1   2  -5   26.00    1.10
  -1  -2   5   23.70    1.00
   1   2  -4    4.10    0.90
  -1  -2   4    8.20    0.90
   1   2  -3   24.40    0.90
  -1  -2   3   33.40    1.10
   1   2  -2    6.50    0.80
  -1  -2   2    2.70    0.80
   1   2  -1   13.00    0.70
  -1  -2   1    9.90    1.20
   1   2   0    0.10    0.50
  -1  -2   0   -0.10    0.30
   1   2   1    0.60    0.30
  -1  -2  -1    1.20    0.50
   1   2   2    3.20    0.70
  -1  -2  -2    5.50    0.60
   1   2   3    3.30    0.70
  -1  -2  -3    2.80    0.70
   1   2   4   17.20    1.20
  -1  -2  -4   15.40    1.20
   1   2   5    0.20    0.70
  -1  -2  -5    0.10    0.70
   1   2   6   66.80    2.50
  -1  -2  -6   50.80    2.10
   1   2   7   15.40    1.50
  -1  -2  -7   19.20    1.50
   1   2   8   24.00    1.40
  -1  -2  -8   19.00    1.30
   1   2   9    8.50    2.30
  -1  -2  -9    1.50    1.60
   1   2  10   62.90    4.10
  -1  -2 -10   57.50    2.70
   1   2  11   -5.70    2.70
  -1  -2 -11    4.80    2.80
   1   2  12   16.30    3.20
  -1  -2 -12   16.50    3.50
   1   2  13    0.70    3.00
  -1  -2 -13   -5.40    2.80
   1   2  14   10.50    2.30
  -1  -2 -14   12.00    2.60
   1   2  15    6.20    3.40
  -1  -2 -15   16.40    3.70
   1   2  16    5.70    4.00
  -1  -2 -16   -2.10    3.40
   1   2  17    7.00    2.90
  -1  -2 -17    2.60    2.80
   1   2  18   -9.90    3.80
  -1  -2 -18    3.60    3.80
   1   2  19   13.50    3.40
  -1  -2 -19    7.30    3.00
   1   3 -18   -3.20    3.90
   1   3 -17    4.40    2.50
  -1  -3  17   -2.80    2.40
   1   3 -16   41.00    4.00
  -1  -3  16   54.30    4.30
   1   3 -15   -5.00    3.00
  -1  -3  15   13.80    3.70
   1   3 -13    0.40    2.20
  -1  -3  13   -0.20    2.00
   1   3 -12   99.10    5.90
  -1  -3  12   98.20    5.40
   1   3 -11   -2.80    1.90
  -1  -3  11    2.40    1.70
   1   3 -10    5.20    1.40
  -1  -3  10    6.80    2.40
   1   3  -9    1.60    1.00
  -1  -3   9    0.20    2.10
   1   3  -8   11.10    1.20
  -1  -3   8   12.40    1.00
   1   3  -7    3.40    0.90
  -1  -3   7    3.30    0.70
   1   3  -6   23.20    1.60
  -1  -3   6   19.40    1.10
   1   3  -5    8.70    0.90
  -1  -3   5    4.70    0.70
   1   3  -4   53.70    1.50
  -1  -3   4   51.20    1.90
   1   3  -3   15.60    1.10
  -1  -3   3   12.20    1.00
   1   3  -2  182.20    3.40
  -1  -3   2  179.50    3.40
   1   3  -1   32.20    0.90
  -1  -3   1   36.90    1.00
   1   3   0  299.90    4.70
  -1  -3   0  304.80    5.30
   1   3   1   43.00    1.10
  -1  -3  -1   43.80    0.80
   1   3   2  349.10    5.30
  -1  -3  -2  374.20    7.50
   1   3   3   42.10    1.20
  -1  -3  -3   41.70    1.30
   1   3   4  314.30    8.10
  -1  -3  -4  314.20    6.60
   1   3   5   73.40    2.60
  -1  -3  -5   81.20    2.70
   1   3   6  150.60    4.70
  -1  -3  -6  160.70    4.70
   1   3   7   30.40    1.70
  -1  -3  -7   25.60    1.40
   1   3   8   37.00    2.00
  -1  -3  -8   52.10    2.40
   1   3   9   69.60    4.60
  -1  -3  -9   60.60    2.70
   1   3  10   35.40    3.60
  -1  -3 -10   28.90    3.50
   1   3  11    2.90    2.10
  -1  -3 -11    8.50    2.30
   1   3  12    4.30    2.20
  -1  -3 -12    8.70    2.50
   1   3  13   10.40    2.70
  -1  -3 -13   11.50    2.50
   1   3  14    2.30    2.40
  -1  -3 -14   -4.80    2.20
   1   3  15   -2.40    3.20
  -1  -3 -15   -4.60    3.30
   1   3  16    3.30    3.90
   1   3  17   -0.30    2.90
  -1  -3 -17    0.30    2.60
  -1  -3 -18   -2.30    3.70
   1   3  19    9.20    3.30
  -1  -3 -19   -4.60    2.50
  -1  -4  18    9.00    4.00
   1   4 -17   -4.60    3.30
  -1  -4  17    6.20    3.40
   1   4 -16    4.90    3.60
  -1  -4  16    5.80    3.50
   1   4 -15    7.20    2.50
  -1  -4  15    6.70    2.50
   1   4 -14    9.70    3.20
  -1  -4  14    8.40    3.10
   1   4 -13   -4.00    2.00
  -1  -4  13    2.00    2.00
   1   4 -12   -7.10    3.00
   1   4 -11   17.00    3.20
  -1  -4  11   23.10    3.40
   1   4 -10    6.80    1.30
  -1  -4  10    6.20    1.80
   1   4  -9    8.10    1.00
  -1  -4   9   11.00    1.90
   1   4  -8    0.00    1.00
  -1  -4   8    2.00    1.30
   1   4  -7   -0.50    0.80
  -1  -4   7   -0.50    0.60
   1   4  -6    7.70    1.10
  -1  -4   6    5.80    0.90
   1   4  -5   31.70    1.20
  -1  -4   5   28.10    1.20
   1   4  -4   17.90    0.90
  -1  -4   4   15.80    1.00
   1   4  -3   14.00    0.70
  -1  -4   3   14.90    0.80
   1   4  -2   55.40    1.30
  -1  -4   2   52.50    1.40
   1   4  -1   14.60    0.80
  -1  -4   1   12.00    1.00
   1   4   0   42.00    1.20
  -1  -4   0   44.00    0.90
   1   4   1    1.70    0.60
  -1  -4  -1    5.00    0.40
   1   4   2   23.50    0.80
  -1  -4  -2   18.90    0.90
   1   4   3   24.80    1.00
  -1  -4  -3   23.70    1.20
   1   4   4    6.50    0.70
  -1  -4  -4    4.90    1.10
   1   4   5   10.00    0.90
  -1  -4  -5    9.00    0.90
   1   4   6   13.20    1.10
  -1  -4  -6   17.90    1.10
   1   4   7   11.70    1.70
  -1  -4  -7    5.10    0.90
   1   4   8    6.50    2.60
  -1  -4  -8    8.20    2.60
   1   4  10    2.30    2.20
  -1  -4 -10    7.40    2.00
   1   4  11   -1.30    2.50
  -1  -4 -11    4.50    2.10
   1   4  12   -2.00    3.40
  -1  -4 -12    8.70    3.30
   1   4  13    6.30    3.40
  -1  -4 -13    6.90    3.60
   1   4  14   13.50    3.90
  -1  -4 -14   15.60    3.50
   1   4  15   11.00    3.50
  -1  -4 -15    5.70    3.70
   1   4  16   -5.60    3.80
  -1  -4 -16   14.50    4.10
   1   4  17   -6.60    2.50
  -1  -4 -17   -6.20    2.40
   1   4  18   32.10    5.70
  -1  -4 -18   44.10    5.40
  -1  -5  18   -2.50    3.30
   1   5 -17    6.10    2.50
  -1  -5  17    8.80    2.60
   1   5 -16    0.60    2.30
  -1  -5  16   -9.20    3.40
  -1  -5  15    4.60    3.50
   1   5 -14   -3.10    1.90
  -1  -5  14   -0.40    1.90
   1   5 -13    6.20    3.40
  -1  -5  13   20.00    3.20
   1   5 -12   10.30    3.30
  -1  -5  12    6.20    2.70
   1   5 -11   23.80    3.30
   1   5 -10   21.90    2.00
  -1  -5  10   26.10    2.90
   1   5  -9   -1.70    1.20
  -1  -5   9   -4.20    2.10
   1   5  -8   17.20    1.30
   1   5  -7   45.30    2.30
  -1  -5   7   39.80    3.00
   1   5  -6   18.10    1.20
  -1  -5   6   14.70    1.10
   1   5  -5   24.90    1.10
  -1  -5   5   24.80    1.20
   1   5  -4   -0.40    0.50
  -1  -5   4    1.30    0.60
   1   5  -3   46.40    1.20
  -1  -5   3   47.30    1.30
   1   5  -2    0.60    0.50
  -1  -5   2    1.00    0.60
   1   5  -1   26.50    1.00
  -1  -5   1   27.80    1.00
   1   5   0    1.70    0.60
  -1  -5   0    1.10    0.50
   1   5   1   37.30    1.10
  -1  -5  -1   40.20    1.10
   1   5   2    8.20    0.90
  -1  -5  -2    8.00    0.70
   1   5   3   19.40    0.80
  -1  -5  -3   22.40    1.10
   1   5   4   -0.50    0.70
  -1  -5  -4   -2.00    0.80
   1   5   5   79.30    2.10
  -1  -5  -5   88.10    2.50
   1   5   6    4.10    0.90
  -1  -5  -6    9.80    1.00
   1   5   7   12.40    1.00
  -1  -5  -7   14.10    1.60
   1   5   8   32.90    3.60
  -1  -5  -8   26.00    1.70
   1   5   9   26.50    3.40
  -1  -5  -9   23.60    2.10
   1   5  10    2.20    2.30
  -1  -5 -10   -0.60    1.30
   1   5  11    8.60    3.40
  -1  -5 -11    7.70    3.00
   1   5  12    3.80    2.50
  -1  -5 -12    6.80    2.40
   1   5  13    0.00    2.30
  -1  -5 -13   -2.80    2.20
   1   5  14    0.70    3.40
  -1  -5 -14    2.70    3.20
   1   5  15    5.60    3.70
  -1  -5 -15   -3.00    3.30
   1   5  16    6.90    3.00
  -1  -5 -16    6.60    2.70
   1   5  17    0.80    2.60
  -1  -5 -17    7.60    3.10
   1   5  18   -3.70    3.00
  -1  -5 -18    1.80    2.70
   1   6 -17    1.20    2.50
  -1  -6  17   13.40    2.80
   1   6 -16   22.60    4.30
  -1  -6  16   26.90    3.70
   1   6 -15    2.60    2.40
   1   6 -14    7.30    3.30
  -1  -6  14    5.30    2.90
   1   6 -13   15.20    3.10
  -1  -6  13   10.10    3.20
   1   6 -12   42.80    3.40
  -1  -6  12   55.10    3.60
   1   6 -11    0.30    2.10
  -1  -6  11    9.80    2.10
   1   6 -10   28.60    3.20
  -1  -6  10   24.70    2.40
   1   6  -9   27.90    2.70
  -1  -6   9   26.20    2.90
   1   6  -8   16.10    1.40
  -1  -6   8   22.70    2.30
   1   6  -7    3.60    1.40
  -1  -6   7    3.90    1.30
   1   6  -6   40.40    1.90
  -1  -6   6   39.80    1.90
   1   6  -5   34.20    1.40
  -1  -6   5   37.90    1.80
   1   6  -4    7.00    0.70
  -1  -6   4    4.80    0.80
   1   6  -3   14.70    0.90
  -1  -6   3   12.30    0.80
   1   6  -2    0.70    0.60
  -1  -6   2    1.90    0.60
   1   6  -1   36.90    1.20
  -1  -6   1   32.60    1.00
   1   6   0   17.60    0.80
  -1  -6   0   15.40    0.70
   1   6   1    1.00    0.60
  -1  -6  -1    0.30    0.60
   1   6   2   14.70    0.70
  -1  -6  -2   16.60    0.90
   1   6   3    5.20    0.60
  -1  -6  -3    3.20    0.80
   1   6   4   43.60    1.30
  -1  -6  -4   47.30    2.30
   1   6   5    4.80    0.70
  -1  -6  -5    8.70    1.70
   1   6   6    9.90    0.90
  -1  -6  -6    7.60    1.40
   1   6   7   35.10    1.90
  -1  -6  -7   33.30    1.90
   1   6   8   23.40    1.80
  -1  -6  -8   25.30    1.90
   1   6   9   30.70    2.00
  -1  -6  -9   35.90    2.20
   1   6  10    9.80    3.50
  -1  -6 -10    6.30    1.90
   1   6  11   14.10    2.90
  -1  -6 -11   11.00    1.70
   1   6  12    3.30    3.20
  -1  -6 -12    8.70    3.40
   1   6  13   19.00    3.50
  -1  -6 -13   22.00    2.10
   1   6  14    9.40    3.10
  -1  -6 -14    3.40    1.70
   1   6  15    6.20    2.80
  -1  -6 -15    5.80    1.80
   1   6  16   -3.90    2.60
  -1  -6 -16   -0.40    2.50
   1   6  17   22.20    4.20
  -1  -6 -17   20.10    3.70
   1   7 -16    5.40    3.30
   1   7 -15    5.70    2.60
  -1  -7  15    5.10    2.20
   1   7 -14   -1.00    2.10
  -1  -7  14    4.40    1.90
   1   7 -13    4.90    2.90
  -1  -7  13   -2.50    2.60
   1   7 -12   -1.40    3.10
  -1  -7  12   -3.80    2.40
   1   7 -11   53.00    4.60
  -1  -7  11   62.20    4.30
   1   7 -10   16.40    3.20
  -1  -7  10   24.10    3.10
   1   7  -9   11.50    2.00
  -1  -7   9    6.70    1.90
   1   7  -8    2.50    1.30
  -1  -7   8    3.10    2.30
   1   7  -7   31.40    1.90
  -1  -7   7   36.50    2.60
   1   7  -6    6.80    1.20
  -1  -7   6    7.50    1.20
   1   7  -5   15.20    1.20
  -1  -7   5   19.80    1.40
   1   7  -4   10.30    1.10
  -1  -7   4    9.00    1.00
   1   7  -3    6.70    0.90
  -1  -7   3    5.80    1.00
   1   7  -2    1.50    0.80
  -1  -7   2    3.10    0.80
   1   7  -1   14.20    0.60
  -1  -7   1   12.00    0.80
   1   7   0   57.90    1.80
  -1  -7   0   58.90    1.50
   1   7   1    0.30    0.60
  -1  -7  -1    1.00    0.70
   1   7   2   23.30    1.00
  -1  -7  -2   23.20    1.10
   1   7   3    3.90    0.70
  -1  -7  -3    3.50    0.80
   1   7   4   37.30    1.20
  -1  -7  -4   40.00    2.40
   1   7   5   12.80    0.70
  -1  -7  -5   18.50    1.80
   1   7   6    3.80    1.20
  -1  -7  -6    4.40    1.80
   1   7   7   10.90    1.30
  -1  -7  -7   13.10    1.80
   1   7   8    8.40    1.30
  -1  -7  -8    8.00    1.70
   1   7   9   -0.60    1.20
  -1  -7  -9    3.00    1.60
   1   7  10   -2.00    1.20
  -1  -7 -10    3.40    1.30
   1   7  11    9.60    1.80
  -1  -7 -11   15.90    2.20
   1   7  12   13.00    1.80
  -1  -7 -12   11.90    1.90
   1   7  13   -0.40    1.70
  -1  -7 -13    3.20    2.10
   1   7  14    1.40    1.80
  -1  -7 -14   -0.50    1.70
   1   7  15    5.00    3.10
  -1  -7 -15    6.80    1.80
   1   7  16   18.80    3.60
  -1  -7 -16   17.60    3.20
   1   8 -15    1.10    2.10
   1   8 -14   -0.20    3.10
  -1  -8  14    5.50    2.80
   1   8 -13   14.70    3.60
  -1  -8  13   19.60    3.70
   1   8 -12    0.10    3.00
  -1  -8  12    2.60    2.70
   1   8 -11    8.50    3.10
  -1  -8  11   -2.70    2.60
   1   8 -10    9.20    3.10
  -1  -8  10   -1.20    2.30
   1   8  -9   -0.20    2.20
  -1  -8   9    0.50    1.70
   1   8  -8    3.60    1.60
  -1  -8   8    7.00    2.40
   1   8  -7    1.80    0.90
  -1  -8   7    1.80    1.70
   1   8  -6   10.60    1.50
  -1  -8   6   14.60    1.60
   1   8  -5    1.30    1.30
  -1  -8   5    3.70    1.10
   1   8  -4    8.50    1.30
  -1  -8   4   10.60    1.10
   1   8  -3    2.60    1.20
  -1  -8   3    5.60    1.10
   1   8  -2   12.20    0.80
  -1  -8   2   11.50    1.00
   1   8  -1   -0.50    0.60
  -1  -8   1    1.10    0.60
   1   8   0    1.20    0.80
  -1  -8   0    1.60    1.00
   1   8   1   17.60    1.00
  -1  -8  -1   18.70    1.10
   1   8   2   15.30    0.80
  -1  -8  -2   11.50    1.00
   1   8   3    2.90    1.50
  -1  -8  -3   -0.10    0.70
   1   8   4   16.50    1.10
  -1  -8  -4   11.60    1.90
   1   8   5   35.60    1.30
  -1  -8  -5   31.60    2.20
   1   8   6    0.80    0.70
  -1  -8  -6    2.80    1.40
   1   8   7    6.60    0.90
  -1  -8  -7    7.40    1.80
   1   8   8   11.70    1.30
  -1  -8  -8   12.80    1.90
   1   8   9    7.50    1.30
  -1  -8  -9    1.60    1.70
   1   8  10    0.20    3.40
  -1  -8 -10    3.40    1.70
   1   8  11    5.70    3.90
  -1  -8 -11    6.70    2.10
   1   8  12   -1.90    2.40
  -1  -8 -12    1.80    1.90
   1   8  13    1.00    3.40
  -1  -8 -13    6.50    2.10
   1   8  14   12.60    2.90
  -1  -8 -14    7.50    1.70
   1   8  15   -4.60    2.70
  -1  -8 -15   -0.50    2.20
   1   9 -14   -0.30    3.20
   1   9 -13   -4.10    2.90
   1   9 -12    6.60    3.40
  -1  -9  12   -3.50    2.40
   1   9 -11    2.40    3.20
  -1  -9  11   -1.40    2.50
   1   9 -10    3.60    3.00
  -1  -9  10    1.20    2.50
   1   9  -9   28.90    3.60
  -1  -9   9   10.60    2.60
   1   9  -8    5.00    2.00
  -1  -9   8    1.80    1.50
   1   9  -7   -0.30    2.80
  -1  -9   7    4.10    2.20
   1   9  -6   -0.10    1.30
  -1  -9   6    0.70    1.40
   1   9  -5    7.50    2.60
  -1  -9   5   -0.40    0.80
   1   9  -4    6.20    1.10
  -1  -9   4    1.30    1.10
   1   9  -3   16.70    1.00
  -1  -9   3   15.30    1.20
   1   9  -2    0.60    0.40
  -1  -9   2    1.10    1.30
   1   9  -1   15.00    2.30
  -1  -9   1   11.60    1.00
   1   9   0    2.70    1.40
  -1  -9   0    1.80    1.00
   1   9   1   38.70    2.20
  -1  -9  -1   43.40    1.60
   1   9   2   -0.70    2.90
  -1  -9  -2    4.10    0.90
   1   9   3   24.60    3.50
  -1  -9  -3   25.10    1.30
   1   9   4    2.10    2.90
  -1  -9  -4    2.00    1.10
   1   9   5    4.40    0.50
  -1  -9  -5    7.90    2.00
   1   9   6   -0.90    0.50
  -1  -9  -6    3.90    1.70
   1   9   7   16.00    1.80
  -1  -9  -7    9.40    1.90
   1   9   8    2.90    1.40
  -1  -9  -8    4.20    2.80
   1   9   9   15.20    3.50
  -1  -9  -9   15.30    2.40
   1   9  10    3.10    1.30
  -1  -9 -10    6.80    2.10
   1   9  11    0.90    2.60
  -1  -9 -11    2.30    1.90
   1   9  12   -2.10    2.40
  -1  -9 -12   -1.60    1.80
   1   9  13    8.60    3.90
  -1  -9 -13    2.60    2.20
   1   9  14    6.10    4.30
  -1  -9 -14    1.60    2.00
   1  10 -13    3.40    2.30
   1  10 -12    1.70    3.00
   1  10 -11    3.60    3.30
   1  10 -10    0.00    1.90
   1  10  -9    0.60    2.10
  -1 -10   9    0.20    1.50
  -1 -10   8    0.80    2.30
   1  10  -7   -9.40    2.70
  -1 -10   7   -2.60    2.20
   1  10  -6    1.70    2.80
  -1 -10   6    2.20    2.10
   1  10  -5   -6.80    2.60
  -1 -10   5   -6.80    2.20
   1  10  -4    7.20    1.00
  -1 -10   4    5.50    1.70
   1  10  -3    6.00    2.20
  -1 -10   3    1.30    1.40
   1  10  -2   -6.50    2.60
  -1 -10   2   -1.90    1.70
  -1 -10   1    2.10    1.40
   1  10   0   -0.60    2.70
  -1 -10   0    8.80    2.10
   1  10   1   -1.50    2.70
  -1 -10  -1    8.10    1.90
   1  10   2    3.20    2.20
  -1 -10  -2    0.30    1.20
  -1 -10  -3   18.20    1.40
   1  10   4  -11.00    3.30
  -1 -10  -4    0.10    1.00
   1  10   5    5.40    3.50
  -1 -10  -5    1.90    1.10
   1  10   6   18.30    3.30
  -1 -10  -6    3.10    1.70
   1  10   7   15.70    2.70
  -1 -10  -7    5.50    1.90
   1  10   8    8.40    3.60
  -1 -10  -8    5.40    1.80
   1  10   9   -0.90    3.80
  -1 -10  -9   -3.40    2.00
   1  10  10    1.60    3.70
  -1 -10 -10    4.40    1.90
   1  10  11   -5.40    2.40
  -1 -10 -11   -2.20    1.60
   1  10  12   11.10    3.60
   1  11 -11   14.60    2.90
   1  11 -10    7.90    2.60
   1  11  -9    1.40    3.00
   1  11  -8   22.00    3.60
   1  11  -7    2.90    2.90
   1  11  -6   -0.30    1.90
  -1 -11   6    0.30    1.70
   1  11  -5    1.90    3.00
  -1 -11   5   -2.10    1.70
   1  11  -4   -6.90    3.00
  -1 -11   4   -2.70    2.30
   1  11  -3   12.20    2.50
  -1 -11   3    1.50    1.30
   1  11  -2   -2.90    2.80
  -1 -11   2    4.00    1.80
   1  11  -1    5.00    3.00
  -1 -11   1    0.00    1.60
   1  11   0   -2.00    1.80
  -1 -11   0   -2.10    1.50
   1  11   1    1.80    2.20
  -1 -11  -1    3.40    2.20
   1  11   2    0.10    1.90
  -1 -11  -2   13.90    2.30
   1  11   3    5.60    2.80
  -1 -11  -3    1.70    1.10
   1  11   4   -3.70    3.40
  -1 -11  -4    2.60    2.10
   1  11   5    9.10    3.50
  -1 -11  -5    0.10    3.70
   1  11   6   14.30    3.60
  -1 -11  -6    1.80    2.00
   1  11   7    2.10    2.30
  -1 -11  -7    2.90    1.70
   1  11   8   22.30    3.20
  -1 -11  -8   20.70    2.50
   1  11   9    5.80    2.50
  -1 -11  -9    5.50    1.80
   1  11  10    1.70    2.30
  -1 -11 -10    8.00    3.50
   1  12  -8    0.10    3.20
   1  12  -7   11.90    3.50
   1  12  -6   20.40    3.40
   1  12  -5    3.80    2.30
  -1 -12   5   -5.60    2.90
   1  12  -4    1.80    2.10
  -1 -12   4    6.30    2.90
   1  12  -3   -1.70    3.00
  -1 -12   3   -2.50    2.70
   1  12  -2   18.10    3.60
  -1 -12   2   14.00    2.20
   1  12  -1   10.50    3.50
  -1 -12   1    2.20    1.90
   1  12   0    2.50    2.90
  -1 -12   0   -2.20    1.90
   1  12   1   14.10    3.50
  -1 -12  -1    2.20    2.20
   1  12   2   10.80    3.40
  -1 -12  -2    0.90    3.60
   1  12   3   -1.80    3.40
  -1 -12  -3   -1.50    2.20
   1  12   4   -2.30    2.30
  -1 -12  -4    4.60    2.10
   1  12   5   -1.80    3.60
  -1 -12  -5    9.40    2.00
   1  12   6    3.00    2.90
  -1 -12  -6    2.40    1.80
   1  12   7    5.00    2.70
  -1 -12  -7    3.70    1.80
   1  12   8    3.70    3.00
  -1 -12  -8    1.50    1.70
   1  13  -3    2.00    3.00
  -1 -13   3   -3.40    4.00
  -1 -13   2   14.70    4.40
   1  13  -1   -2.10    3.20
  -1 -13   1   13.00    4.20
   1  13   0    3.20    3.50
  -1 -13   0    2.20    3.90
   1  13   1    3.90    2.50
  -1 -13  -1   -1.40    4.10
   1  13   2   -1.50    2.20
  -1 -13  -2   -8.00    3.70
   1  13   3   -1.10    3.40
  -1 -13  -3   -3.70    2.60
   2 -11  -6  287.80   16.10
  -2  11   6  233.30   14.40
   2 -11  -5  296.30   16.00
  -2  11   5  285.50   15.30
   2 -11  -4  174.80    7.80
  -2  11   4  195.10   10.90
   2 -11  -3  345.80   12.10
  -2  11   3  374.50   19.80
   2 -11  -2   34.40    2.80
  -2  11   2   24.90    3.40
   2 -11  -1  292.20   10.60
  -2  11   1  253.20   13.60
   2 -11   0    6.00    2.20
  -2  11   0    6.40    2.60
   2 -11   1  241.50    9.00
  -2  11  -1  230.80   11.80
   2 -11   2   -2.90    3.80
  -2  11  -2   -3.40    2.40
   2 -11   3  388.90   19.00
  -2  11  -3  344.10   15.90
   2 -11   4   70.60    5.80
  -2  11  -4   82.60    5.10
   2 -11   5  368.80   18.80
  -2  11  -5  363.20   17.30
  -2  11  -6  225.80   12.40
   2 -11   7  268.50   14.40
  -2  11  -7  266.80   14.00
   2 -10  -9   11.40    4.00
  -2  10   9   11.50    2.10
   2 -10  -8  119.50    8.40
  -2  10   8  118.10    5.20
   2 -10  -7   14.30    4.10
  -2  10   7    2.10    2.10
   2 -10  -6  124.30    8.50
  -2  10   6  101.80    4.60
   2 -10  -5   11.40    3.00
  -2  10   5    3.50    2.80
   2 -10  -4   44.40    3.30
  -2  10   4   50.10    3.60
   2 -10  -3   26.40    2.80
  -2  10   3   20.10    2.70
   2 -10  -2   64.20    4.50
  -2  10   2   70.00    4.70
   2 -10  -1   17.30    2.70
  -2  10   1   18.40    2.90
   2 -10   0   52.70    3.30
  -2  10   0   67.60    4.20
   2 -10   1    6.50    3.20
  -2  10  -1    3.20    2.30
   2 -10   2   62.50    3.20
  -2  10  -2   49.10    3.60
   2 -10   3   40.00    4.80
  -2  10  -3   56.10    3.80
   2 -10   5    1.10    3.70
  -2  10  -5   -2.00    2.00
   2 -10   6   84.90    6.00
  -2  10  -6   92.80    5.40
   2 -10   7   16.10    3.80
  -2  10  -7    5.70    2.00
   2 -10   8  103.70    7.20
  -2  10  -8  100.20    6.00
  -2  10  -9   15.80    2.50
  -2  10 -10  154.10    7.90
   2  -9 -11  204.30    8.70
  -2   9  11  188.10    8.00
   2  -9 -10  365.20   12.90
  -2   9  10  319.70   11.20
   2  -9  -9  278.40   10.60
  -2   9   9  260.00   10.00
   2  -9  -8  437.80   15.40
  -2   9   8  423.30   14.60
   2  -9  -7  442.70   12.80
  -2   9   7  469.90   12.80
   2  -9  -6  218.20    7.30
  -2   9   6  222.20    6.90
   2  -9  -5  307.90    9.50
  -2   9   5  323.50    9.40
   2  -9  -4  251.50    7.70
  -2   9   4  244.90    7.50
   2  -9  -3  290.30   12.80
  -2   9   3  294.60   12.30
   2  -9  -2   81.40    3.30
  -2   9   2   80.90    4.50
   2  -9  -1  583.20   12.90
  -2   9   1  611.20   22.90
   2  -9   0   35.80    2.10
  -2   9   0   31.60    3.50
   2  -9   1  669.80   14.50
  -2   9  -1  687.10   24.80
   2  -9   2  102.60    3.30
  -2   9  -2  115.40    5.90
   2  -9   3  369.10    8.50
  -2   9  -3  337.00   12.80
   2  -9   4  160.30    8.20
  -2   9  -4  185.40    8.00
   2  -9   5  234.10   10.40
  -2   9  -5  219.30    6.40
   2  -9   6  291.10   12.20
  -2   9  -6  337.70    9.20
   2  -9   7  306.20   12.60
  -2   9  -7  328.40    9.30
   2  -9   8  347.40   14.80
  -2   9  -8  392.60   11.00
  -2   9  -9  363.90   12.30
  -2   9 -10  427.20   14.40
  -2   9 -11  196.60    7.60
  -2   9 -12  247.40   13.10
   2  -8 -13   -3.60    2.20
  -2   8  13    3.60    2.40
   2  -8 -12  119.90    6.00
  -2   8  12  138.40    6.20
   2  -8 -11   55.50    3.70
  -2   8  11   44.60    3.30
   2  -8 -10  249.10    8.20
  -2   8  10  268.00    8.80
   2  -8  -9   54.70    3.30
  -2   8   9   44.20    3.20
   2  -8  -8  597.60   16.20
  -2   8   8  552.30   14.90
   2  -8  -7  232.00   11.30
  -2   8   7  229.70   10.70
   2  -8  -6  534.20   14.30
  -2   8   6  504.80   13.10
   2  -8  -5  156.00    5.40
  -2   8   5  147.20    5.20
   2  -8  -4  270.50   11.90
  -2   8   4  291.50    9.00
   2  -8  -3  142.50    5.00
  -2   8   3  135.90    3.70
   2  -8  -2  476.60   13.40
  -2   8   2  462.20   10.30
   2  -8  -1   21.30    1.80
  -2   8   1   16.60    3.40
   2  -8   0  917.70   19.00
  -2   8   0  899.50   22.30
   2  -8   1   43.60    2.30
  -2   8  -1   39.30    3.60
   2  -8   2  837.00   17.50
  -2   8  -2  811.30   20.80
   2  -8   3   42.90    1.50
  -2   8  -3   39.40    2.10
   2  -8   4  476.40    9.40
  -2   8  -4  490.70   12.90
   2  -8   5   39.80    2.20
  -2   8  -5   35.20    1.90
   2  -8   6  654.80   17.50
  -2   8  -6  685.60   18.10
   2  -8   7  259.80    7.90
  -2   8  -7  252.20    7.10
   2  -8   8  780.50   29.70
  -2   8  -8  854.70   21.20
  -2   8  -9   39.60    2.10
  -2   8 -10  486.00   18.80
  -2   8 -11   63.10    4.20
  -2   8 -12  136.90    7.80
  -2   8 -13    7.10    2.00
  -2   8 -14   47.20    4.20
   2  -7 -14   19.60    2.80
  -2   7  14   20.70    3.00
   2  -7 -13   17.40    2.40
  -2   7  13   13.40    2.30
   2  -7 -12    0.80    1.80
  -2   7  12    8.40    1.90
   2  -7 -11   56.10    3.70
  -2   7  11   46.30    4.30
   2  -7 -10    3.10    1.80
  -2   7  10    7.50    1.70
   2  -7  -9  239.20    9.00
  -2   7   9  213.90   12.30
   2  -7  -8    6.80    1.90
  -2   7   8    7.00    2.20
   2  -7  -7  619.30   19.20
  -2   7   7  524.40   14.90
   2  -7  -6   53.30    2.80
  -2   7   6   52.30    2.10
   2  -7  -5  709.70   18.40
  -2   7   5  692.80   19.20
   2  -7  -4   20.80    1.20
  -2   7   4   22.10    1.40
   2  -7  -3 1240.90   33.10
  -2   7   3 1225.50   31.90
   2  -7  -2   64.40    2.80
  -2   7   2   62.80    2.10
   2  -7  -1 1211.50   31.60
  -2   7   1 1155.10   24.00
   2  -7   0   44.10    2.20
  -2   7   0   33.90    2.40
   2  -7   1 1497.90   30.20
  -2   7  -1 1385.10   34.20
   2  -7   2   42.30    1.50
  -2   7  -2   42.50    3.10
   2  -7   3  747.70   13.50
  -2   7  -3  750.60   15.40
   2  -7   4    6.80    0.90
  -2   7  -4   11.00    1.30
   2  -7   5  557.80   12.10
  -2   7  -5  553.90   11.40
   2  -7   6   57.80    2.00
  -2   7  -6   55.30    1.80
   2  -7   7  227.00    5.90
  -2   7  -7  245.50    5.60
   2  -7   8   13.90    1.70
  -2   7  -8   23.90    2.50
   2  -7   9  103.60    5.50
  -2   7  -9  122.30    5.80
   2  -7  10   47.40    3.60
  -2   7 -10   48.30    3.40
  -2   7 -11   60.20    3.90
  -2   7 -12   20.60    3.10
  -2   7 -13   25.20    3.00
  -2   7 -14   -2.30    2.40
  -2   7 -15   41.20    4.20
   2  -6 -15   21.10    3.70
  -2   6  15   31.80    3.00
   2  -6 -14  600.30   29.00
  -2   6  14  572.20   19.30
   2  -6 -13   62.30    5.20
  -2   6  13   55.20    3.90
   2  -6 -12  838.80   31.50
  -2   6  12  874.60   22.60
   2  -6 -11  336.80   14.50
  -2   6  11  332.30   10.60
   2  -6 -10  863.20   31.20
  -2   6  10  899.90   22.50
   2  -6  -9  516.60   19.80
  -2   6   9  581.90   15.60
   2  -6  -8  472.40   18.90
  -2   6   8  443.50   10.10
   2  -6  -7  276.10   11.20
  -2   6   7  316.90    7.10
   2  -6  -6  522.90   13.80
  -2   6   6  496.30   10.30
   2  -6  -5  199.90    6.60
  -2   6   5  179.30    4.70
   2  -6  -4  416.80   10.30
  -2   6   4  462.00   12.60
   2  -6  -3  243.80    6.50
  -2   6   3  250.10    5.70
   2  -6  -2  350.30    7.30
  -2   6   2  367.70    8.90
   2  -6  -1   84.70    2.70
  -2   6   1   85.10    2.50
   2  -6   0   12.30    1.20
  -2   6   0   11.30    1.30
   2  -6   1   45.80    0.90
  -2   6  -1   47.80    2.00
   2  -6   2  360.30    6.10
  -2   6  -2  358.50    9.60
   2  -6   3  443.30    7.40
  -2   6  -3  444.40    9.30
   2  -6   4  873.80   14.00
  -2   6  -4  897.10   17.70
   2  -6   5  262.10    5.10
  -2   6  -5  273.60    6.20
   2  -6   6 1144.60   22.60
  -2   6  -6 1123.10   27.00
   2  -6   7  300.00    6.70
  -2   6  -7  309.90    8.30
   2  -6   8  770.10   19.50
  -2   6  -8  768.00   19.40
   2  -6   9  422.80   15.70
  -2   6  -9  395.40   11.10
   2  -6  10  978.90   34.60
  -2   6 -10 1009.30   35.10
   2  -6  11  300.30   12.00
  -2   6 -11  288.40   11.40
   2  -6  12  879.80   32.20
  -2   6 -12  880.70   30.90
  -2   6 -13   78.00    4.60
  -2   6 -14  575.20   21.80
  -2   6 -15    1.60    2.80
  -2   6 -16  135.90    8.60
   2  -5 -16    7.80    3.20
  -2   5  16   21.70    4.00
   2  -5 -15  402.60   22.60
  -2   5  15  364.20   19.20
   2  -5 -14  117.60    8.00
  -2   5  14  122.40    7.90
   2  -5 -13  456.30   18.00
  -2   5  13  459.30   13.10
   2  -5 -12  113.30    6.60
  -2   5  12  104.60    4.90
   2  -5 -11  967.50   35.70
  -2   5  11  980.50   24.70
   2  -5 -10  121.10    6.60
  -2   5  10  141.70    4.10
   2  -5  -9  283.00   12.50
  -2   5   9  234.10    6.10
   2  -5  -8  286.30   11.80
  -2   5   8  255.60    6.20
   2  -5  -7  425.50   15.90
  -2   5   7  441.80    8.70
   2  -5  -6  256.80   12.90
  -2   5   6  198.40    5.10
   2  -5  -5  580.40   21.10
  -2   5   5  575.50   10.40
   2  -5  -4  269.50    7.60
  -2   5   4  269.70    5.90
   2  -5  -3 1203.00   24.90
  -2   5   3 1179.50   23.40
   2  -5  -2   17.10    0.70
  -2   5   2   21.70    1.70
   2  -5  -1  135.10    2.50
  -2   5   1  130.90    3.40
   2  -5   0   23.20    0.90
  -2   5   0   21.50    1.10
   2  -5   1    2.60    0.40
  -2   5  -1    4.20    0.80
   2  -5   2    0.60    0.40
  -2   5  -2    4.40    0.70
   2  -5   3  289.10    4.50
  -2   5  -3  285.90    5.40
   2  -5   4   99.40    2.10
  -2   5  -4  105.30    2.30
   2  -5   5  189.00    3.80
  -2   5  -5  183.10    4.50
   2  -5   6  179.70    3.60
  -2   5  -6  188.40    4.30
   2  -5   7   72.10    2.10
  -2   5  -7   77.20    3.60
   2  -5   8  367.50    9.90
  -2   5  -8  377.90   10.00
   2  -5   9   53.80    3.40
  -2   5  -9   39.30    2.00
   2  -5  10  213.60    8.70
  -2   5 -10  203.40    5.90
   2  -5  11  449.10   16.70
  -2   5 -11  445.40   16.60
   2  -5  12  159.80    7.90
  -2   5 -12  125.30    6.00
   2  -5  13  760.40   27.60
  -2   5 -13  715.10   25.20
  -2   5 -14  120.90    5.90
  -2   5 -15  474.60   17.90
  -2   5 -16   16.30    3.80
  -2   5 -17  311.10   16.20
   2  -4 -17  130.20    9.10
  -2   4  17  106.20    8.10
   2  -4 -16  623.70   30.70
  -2   4  16  573.20   28.20
   2  -4 -15   63.90    5.60
  -2   4  15   83.30    6.40
   2  -4 -14  798.90   31.40
  -2   4  14  790.80   29.30
   2  -4 -13   31.60    3.70
  -2   4  13   21.80    3.30
   2  -4 -12 1041.20   37.90
  -2   4  12 1131.00   39.00
   2  -4 -11  391.00   15.10
  -2   4  11  391.40   15.40
   2  -4 -10 1066.10   38.30
  -2   4  10  991.60   25.00
   2  -4  -9   56.60    4.40
  -2   4   9   51.30    2.50
   2  -4  -8  392.40   15.20
  -2   4   8  345.50    6.90
   2  -4  -7   32.60    3.30
  -2   4   7   23.50    1.40
   2  -4  -6  653.20   23.60
  -2   4   6  625.70   11.20
   2  -4  -5  193.90    5.80
  -2   4   5  189.30    3.90
   2  -4  -4  270.50    7.40
  -2   4   4  265.50    4.90
   2  -4  -3  114.70    3.50
  -2   4   3  120.00    2.40
   2  -4  -2  421.60    6.70
  -2   4   2  409.90    8.60
   2  -4  -1   65.70    1.50
  -2   4   1   64.70    1.90
   2  -4   0   46.40    1.00
  -2   4   0   46.70    1.40
   2  -4   1    6.70    0.60
  -2   4  -1    1.10    1.00
   2  -4   2  735.10   11.50
  -2   4  -2  734.20   17.90
   2  -4   3  278.30    4.80
  -2   4  -3  274.80    5.90
   2  -4   4  989.20   15.30
  -2   4  -4  987.70   19.20
   2  -4   5  107.70    2.70
  -2   4  -5  123.80    3.00
   2  -4   6 1476.80   28.70
  -2   4  -6 1425.00   27.60
   2  -4   7   32.00    1.30
  -2   4  -7   35.70    1.30
   2  -4   8  751.60   18.50
  -2   4  -8  728.30   14.60
   2  -4   9   79.90    4.20
  -2   4  -9   76.30    2.20
   2  -4  10 1134.00   39.50
  -2   4 -10 1088.60   22.00
   2  -4  11  570.20   21.00
  -2   4 -11  505.70   10.60
   2  -4  12  914.60   33.40
  -2   4 -12  895.40   23.20
   2  -4  13  107.20    5.80
  -2   4 -13   89.10    5.40
   2  -4  14  761.30   28.20
  -2   4 -14  763.40   27.10
   2  -4  15   23.20    3.60
  -2   4 -16  406.30   19.90
  -2   4 -17  106.80    7.20
  -2   4 -18  328.00   16.80
   2  -3 -17   90.80    6.90
  -2   3  17  127.20    8.50
   2  -3 -16   -3.00    3.80
  -2   3  16   11.00    4.10
   2  -3 -15  291.60   13.60
  -2   3  15  285.60   12.60
   2  -3 -14    9.70    3.50
  -2   3  14   13.60    3.70
   2  -3 -13  213.40   10.20
  -2   3  13  229.00   10.90
   2  -3 -12   71.50    5.00
  -2   3  12   44.50    4.90
   2  -3 -11  432.90   16.50
  -2   3  11  419.70   16.70
   2  -3 -10  529.00   20.30
  -2   3  10  488.00   15.40
   2  -3  -9 1579.40   54.40
  -2   3   9 1421.80   33.70
   2  -3  -8   73.90    4.20
  -2   3   8   75.50    4.30
   2  -3  -7 1985.70   67.50
  -2   3   7 1796.40   35.50
   2  -3  -6    9.20    1.10
  -2   3   6    8.90    0.90
   2  -3  -5 4402.00   99.70
  -2   3   5 4399.80   70.30
   2  -3  -4    9.50    2.20
  -2   3   4    3.30    0.80
   2  -3  -3 3618.50   66.40
  -2   3   3 3613.50   57.60
   2  -3  -2  383.40    6.70
  -2   3   2  390.20    6.80
   2  -3  -1 8764.80  136.80
  -2   3   1 9040.60  162.80
   2  -3   0   11.00    0.50
  -2   3   0    9.00    1.00
   2  -3   1 8525.40  154.30
  -2   3  -1 8548.20  153.80
   2  -3   2  356.60    5.70
  -2   3  -2  353.00    8.70
   2  -3   3 3872.10   55.50
  -2   3  -3 3850.30   70.30
   2  -3   4   85.80    1.80
  -2   3  -4   75.10    2.40
   2  -3   5 3520.30   64.90
  -2   3  -5 3497.00   64.60
   2  -3   6   55.30    1.60
  -2   3  -6   55.70    1.80
   2  -3   7 1952.00   37.10
  -2   3  -7 1955.80   32.50
   2  -3   8   22.10    1.20
  -2   3  -8   26.30    1.10
   2  -3   9 1636.10   55.90
  -2   3  -9 1577.50   30.80
   2  -3  10  136.60    6.40
  -2   3 -10  121.50    3.20
   2  -3  11  524.00   20.60
  -2   3 -11  488.00   10.50
   2  -3  12  147.70    7.30
  -2   3 -12  156.30    5.00
   2  -3  13  128.00    6.40
  -2   3 -13  100.00    3.20
   2  -3  14    1.80    2.50
  -2   3 -14    6.70    3.60
   2  -3  15  161.60    7.90
  -2   3 -15  155.80    7.80
   2  -3  16   29.70    3.60
  -2   3 -16   47.00    4.60
  -2   3 -17  101.10    7.10
  -2   3 -18   33.50    4.50
   2  -2 -18    2.70    3.90
  -2   2  18    5.10    4.60
   2  -2 -17   18.10    4.00
  -2   2  17   -0.60    2.90
   2  -2 -16   25.00    3.80
  -2   2  16   17.90    3.50
   2  -2 -15    9.30    4.20
  -2   2  15   22.70    4.30
   2  -2 -14   50.30    4.40
  -2   2  14   52.40    4.30
   2  -2 -13   36.80    4.10
  -2   2  13   51.20    5.00
   2  -2 -12  121.70    6.70
  -2   2  12  140.00    7.00
   2  -2 -11   38.50    3.70
  -2   2  11   18.30    3.60
   2  -2 -10  565.70   21.30
  -2   2  10  529.70   21.50
   2  -2  -9   35.30    3.60
  -2   2   9   37.80    2.30
   2  -2  -8  736.10   26.40
  -2   2   8  716.40   14.90
   2  -2  -7  162.80    5.00
  -2   2   7  160.40    4.70
   2  -2  -6 2714.60   63.60
  -2   2   6 2753.30   51.60
   2  -2  -5    7.10    1.60
  -2   2   5   13.70    2.90
   2  -2  -4 1198.60   23.10
  -2   2   4 1191.70   19.90
   2  -2  -3  198.50    4.20
  -2   2   3  203.10    3.70
   2  -2  -2 6038.30  108.80
  -2   2   2 5998.40   93.60
   2  -2  -1   80.90    1.70
  -2   2   1   85.50    1.80
   2  -2   0 9186.90  202.20
  -2   2   0 9692.30  301.00
   2  -2   1   94.70    1.70
  -2   2  -1   94.20    2.10
   2  -2   2 8216.60  182.70
   2  -2   3   46.90    1.00
  -2   2  -3   46.80    1.30
   2  -2   4 1303.40   21.30
  -2   2  -4 1253.40   23.90
   2  -2   5   41.30    1.50
  -2   2  -5   39.40    1.30
   2  -2   6 1959.30   36.40
  -2   2  -6 1975.20   32.20
   2  -2   7   25.50    1.30
  -2   2  -7   21.60    0.90
   2  -2   8  877.50   21.60
  -2   2  -8  876.50   15.00
   2  -2   9   17.20    2.20
  -2   2  -9   17.30    1.10
   2  -2  10  435.20   15.60
  -2   2 -10  368.40    7.80
   2  -2  11   12.50    4.00
  -2   2 -11    6.30    1.10
   2  -2  12    7.90    2.40
  -2   2 -12    8.40    1.00
   2  -2  13    9.70    2.60
  -2   2 -13    4.30    1.00
   2  -2  14    6.30    1.70
  -2   2 -14    7.10    3.10
   2  -2  16   15.60    2.70
  -2   2 -16    8.90    2.40
   2  -2  17   50.60    4.50
  -2   2 -17   47.90    4.30
  -2   2 -18   17.00    4.00
  -2   2 -19    9.90    3.50
   2  -1 -18    9.30    4.00
  -2   1  18   17.40    4.80
   2  -1 -17   45.90    5.70
  -2   1  17   36.40    3.10
   2  -1 -16   68.70    5.60
  -2   1  16   58.60    4.90
   2  -1 -15  196.40    9.90
  -2   1  15  217.60   10.20
   2  -1 -14    4.00    3.60
  -2   1  14    7.90    3.70
   2  -1 -13  122.00    6.40
  -2   1  13  128.50    8.00
   2  -1 -12  153.60    8.40
  -2   1  12  148.80    7.50
   2  -1 -11  319.60   13.30
  -2   1  11  292.50   15.70
   2  -1 -10  360.50   14.50
  -2   1  10  399.30   15.80
   2  -1  -9  684.70   26.40
  -2   1   9  609.30   20.40
   2  -1  -8   21.80    1.50
  -2   1   8   19.50    1.30
   2  -1  -7 1401.30   33.90
  -2   1   7 1412.60   27.70
   2  -1  -6    6.30    1.10
  -2   1   6   10.30    1.50
   2  -1  -5  237.30    6.70
  -2   1   5  242.40    6.70
   2  -1  -4   76.10    2.10
  -2   1   4   84.50    2.10
   2  -1  -3 1386.80   26.70
  -2   1   3 1382.10   26.60
   2  -1  -2  420.10    8.50
  -2   1   2  403.80    7.00
   2  -1  -1 3143.20   49.90
  -2   1   1 3186.00   57.80
   2  -1   0   44.20    0.90
  -2   1   0   45.40    1.30
  -2   1  -1 5608.70  175.90
   2  -1   2 1088.40   17.70
  -2   1  -2 1083.80   19.70
   2  -1   3 4342.30   68.10
  -2   1  -3 4203.30  129.50
   2  -1   4    7.60    0.50
  -2   1  -4    5.90    0.60
   2  -1   5 1373.80   25.70
  -2   1  -5 1352.10   22.30
   2  -1   6   42.40    1.50
  -2   1  -6   37.40    1.10
   2  -1   7 3162.50   71.50
  -2   1  -7 3141.00   50.40
   2  -1   8   46.40    1.80
  -2   1  -8   51.60    1.50
   2  -1   9  906.30   22.50
  -2   1  -9  904.00   15.90
   2  -1  10  365.90   14.40
  -2   1 -10  348.70    7.80
   2  -1  11  400.90   15.80
  -2   1 -11  380.70    8.50
   2  -1  12  202.80    9.60
  -2   1 -12  203.60    5.30
   2  -1  13   11.60    3.80
  -2   1 -13    6.30    1.10
   2  -1  14    0.10    1.70
  -2   1 -14   -2.60    1.90
   2  -1  15   83.90    5.20
  -2   1 -15   83.50    5.60
   2  -1  16   43.70    8.00
  -2   1 -16   94.40   11.00
  -2   1 -17   13.90    4.10
   2  -1  18    9.80    3.80
  -2   1 -18   10.30    3.70
   2  -1  19    5.90    2.90
  -2   1 -19   17.60    3.40
   2   0 -18  292.90   16.00
  -2   0  18  262.80   13.70
   2   0 -17   61.30    6.50
  -2   0  17   84.20    7.30
   2   0 -16  196.40   10.20
  -2   0  16  194.10   10.30
   2   0 -15   51.00    4.00
  -2   0  15   44.30    4.70
   2   0 -14  378.40   15.00
  -2   0  14  319.60   12.90
   2   0 -13   52.50    5.50
  -2   0  13   44.60    5.20
   2   0 -12  793.00   29.30
  -2   0  12  769.20   30.90
   2   0 -11  619.80   25.10
  -2   0  11  576.90   23.00
   2   0 -10  702.40   28.40
  -2   0  10  690.50   30.20
   2   0  -9  424.40   17.40
  -2   0   9  361.40    9.70
   2   0  -8 1014.10   26.00
  -2   0   8 1053.50   21.80
   2   0  -7    3.10    0.90
  -2   0   7    2.50    1.00
   2   0  -6 2073.40   49.10
  -2   0   6 2071.30   48.80
   2   0  -5   38.10    1.50
  -2   0   5   36.30    1.50
   2   0  -4 1904.90   44.40
  -2   0   4 1787.90   59.20
   2   0  -3  131.40    2.90
  -2   0   3  132.50    3.00
   2   0  -2 6464.30  116.10
  -2   0   2 6306.30  138.60
   2   0  -1 1060.80   25.40
  -2   0   1 1029.40   16.70
   2   0   0   17.30    0.90
  -2   0   0   17.20    0.70
   2   0   1  621.70   19.70
  -2   0  -1  651.70   12.30
   2   0   2 1910.80   59.90
  -2   0  -2 1974.40   36.20
   2   0   3   57.90    1.10
  -2   0  -3   55.70    1.70
   2   0   4    4.40    0.40
  -2   0  -4    7.30    0.90
   2   0   5    9.30    0.60
  -2   0  -5   10.30    0.60
   2   0   6  105.50    3.20
  -2   0  -6  110.40    2.30
   2   0   7  168.10    4.90
  -2   0  -7  168.40    3.80
   2   0   8   80.70    2.70
  -2   0  -8   87.10    2.30
   2   0   9  271.50    7.50
  -2   0  -9  258.00    5.70
   2   0  10  207.20    8.50
  -2   0 -10  199.70    4.70
   2   0  11  275.10   11.50
  -2   0 -11  283.40    6.30
   2   0  12  532.50   20.20
  -2   0 -12  483.30   10.70
   2   0  13  119.00   11.80
  -2   0 -13   86.90    3.80
   2   0  14  696.50   17.90
  -2   0 -14  728.40   28.10
   2   0  15   53.40    7.00
  -2   0 -15   34.80    6.20
   2   0  16  380.80   16.40
  -2   0 -16  371.90   15.40
   2   0  17  136.60    9.10
  -2   0 -17  135.30    8.90
   2   0  18  554.80   27.30
  -2   0 -18  545.70   25.80
   2   0  19   64.40    7.10
  -2   0 -19   99.40    9.00
   2   1 -18    5.20    5.00
  -2  -1  18    8.60    3.60
   2   1 -17 1046.30   47.60
  -2  -1  17  980.40   46.00
   2   1 -16   21.80    4.00
  -2  -1  16   19.30    3.70
   2   1 -15  751.50   27.00
  -2  -1  15  721.20   27.20
   2   1 -14  116.70    9.30
  -2  -1  14  126.10   10.10
   2   1 -13 2231.00   75.60
  -2  -1  13 2176.30   74.30
   2   1 -12   74.80    5.40
  -2  -1  12   65.40    4.90
   2   1 -11 1363.30   49.20
  -2  -1  11 1322.50   47.60
   2   1 -10  401.30   16.40
   2   1  -9  161.20    7.70
  -2  -1   9  188.00    9.10
   2   1  -8  139.80    4.50
  -2  -1   8  133.90    3.30
   2   1  -7   24.30    1.30
  -2  -1   7   26.80    1.30
   2   1  -6 2637.00   50.50
  -2  -1   6 2514.60   47.80
   2   1  -5   90.20    2.40
  -2  -1   5   89.20    2.30
   2   1  -4   82.70    2.20
  -2  -1   4   78.80    2.20
   2   1  -3  565.10   11.20
  -2  -1   3  558.90   11.30
   2   1  -2  266.50    6.70
  -2  -1   2  257.80    6.60
   2   1  -1 1642.70   36.90
  -2  -1   1 1597.20   36.40
   2   1   0    8.90    0.70
  -2  -1   0    6.20    0.70
   2   1   1 2524.20   56.60
  -2  -1  -1 2475.80   45.10
   2   1   2  328.80    8.00
  -2  -1  -2  327.10    5.50
   2   1   3 1395.00   32.00
  -2  -1  -3 1430.30   26.60
   2   1   4   23.50    1.60
  -2  -1  -4   26.90    0.80
   2   1   5 1091.00   25.80
  -2  -1  -5 1105.00   26.00
   2   1   6 1914.70   44.60
  -2  -1  -6 1889.40   44.20
   2   1   7  960.60   23.20
  -2  -1  -7  950.10   23.00
   2   1   8  359.10    9.30
  -2  -1  -8  364.20    9.60
   2   1   9  579.80   15.20
  -2  -1  -9  580.50   15.00
   2   1  10  291.40   11.80
  -2  -1 -10  277.30    8.00
   2   1  11 1383.50   46.90
  -2  -1 -11 1267.30   31.70
   2   1  12  198.00   10.60
  -2  -1 -12  188.70   10.20
   2   1  13 1590.50   54.10
  -2  -1 -13 1540.90   53.00
   2   1  14  133.10   10.30
  -2  -1 -14  127.00   10.60
   2   1  15  436.40   17.30
  -2  -1 -15  436.80   16.60
   2   1  16   24.50    3.30
  -2  -1 -16   34.90    6.40
   2   1  17  403.70   17.70
  -2  -1 -17  412.20   18.00
   2   1  18   19.20    6.40
  -2  -1 -18   53.30    8.10
   2   1  19  328.00   19.40
  -2  -1 -19  332.80   17.70
   2   2 -18  306.00   16.50
  -2  -2  18  259.90   15.70
   2   2 -17  120.80    8.60
  -2  -2  17  118.50    8.20
   2   2 -16  246.80   11.70
  -2  -2  16  275.10   12.10
   2   2 -15   72.30    6.10
  -2  -2  15   89.90    6.90
   2   2 -14  639.10   24.30
  -2  -2  14  711.50   26.70
   2   2 -13  312.90   14.60
  -2  -2  13  275.10   13.80
   2   2 -12 1590.10   55.50
  -2  -2  12 1515.00   53.50
   2   2 -11  932.80   34.30
  -2  -2  11  926.80   32.70
   2   2 -10 1975.00   65.80
  -2  -2  10 2025.80   68.70
   2   2  -9 1220.20   42.20
  -2  -2   9 1158.90   40.10
   2   2  -8 1757.50   34.40
  -2  -2   8 1686.90   32.80
   2   2  -7  835.40   20.70
  -2  -2   7  780.80   16.00
   2   2  -6 4862.60   89.70
  -2  -2   6 4700.20   87.40
   2   2  -5 1944.60   37.30
  -2  -2   5 1906.80   36.80
   2   2  -4 9568.30  173.90
  -2  -2   4 9335.90  169.00
   2   2  -3  138.60    3.40
  -2  -2   3  121.60    2.90
   2   2  -2 5698.30  103.90
  -2  -2   2 5456.40  121.90
   2   2  -1 3987.30   72.70
  -2  -2   1 3893.70   86.60
   2   2   0 1513.10   35.00
  -2  -2   0 1453.80   33.80
   2   2   1 2646.70   48.70
  -2  -2  -1 2662.10   48.60
   2   2   2 1429.60   22.70
  -2  -2  -2 1429.00   26.90
   2   2   3   61.70    1.50
  -2  -2  -3   56.40    1.30
   2   2   4 1843.90   42.40
  -2  -2  -4 1872.40   34.50
   2   2   5 1368.10   32.10
  -2  -2  -5 1361.60   25.50
   2   2   6 1737.30   40.60
  -2  -2  -6 1728.20   40.00
   2   2   7  729.40   18.00
  -2  -2  -7  716.40   17.30
   2   2   8  288.20    7.90
  -2  -2  -8  303.50    8.30
   2   2   9 1110.00   39.00
  -2  -2  -9 1033.50   25.80
   2   2  10 1446.40   49.80
  -2  -2 -10 1423.20   34.40
   2   2  11 1084.00   37.80
  -2  -2 -11 1056.80   26.20
   2   2  12 1563.30   53.80
  -2  -2 -12 1601.70   54.10
   2   2  13  318.20   13.90
  -2  -2 -13  381.40   15.00
   2   2  14 1233.30   43.30
  -2  -2 -14 1278.40   44.10
   2   2  15  178.60   10.00
  -2  -2 -15  162.30    9.60
   2   2  16  607.70   22.80
  -2  -2 -16  550.30   21.70
   2   2  17  141.10    8.20
  -2  -2 -17  140.80    8.30
   2   2  18  349.80   19.50
  -2  -2 -18  388.60   19.00
   2   2  19   35.00    5.10
  -2  -2 -19   20.50    4.70
   2   3 -18    4.90    3.90
  -2  -3  18    3.90    3.80
   2   3 -17   56.40    5.60
  -2  -3  17   43.60    5.60
   2   3 -16   27.30    4.00
  -2  -3  16   40.80    4.30
   2   3 -15  405.50   16.30
  -2  -3  15  426.00   17.50
   2   3 -14   17.10    4.10
  -2  -3  14   17.20    4.30
   2   3 -13  531.00   19.40
  -2  -3  13  535.60   20.20
   2   3 -12   86.40    5.20
  -2  -3  12  115.40    6.10
   2   3 -11 1114.40   39.00
  -2  -3  11 1096.40   37.90
   2   3 -10  291.30   13.40
  -2  -3  10  275.20   12.20
   2   3  -9 1571.70   38.80
  -2  -3   9 1651.10   56.10
   2   3  -8   27.60    1.40
   2   3  -7 1242.30   32.30
  -2  -3   7 1148.00   30.60
   2   3  -6  262.40    5.80
  -2  -3   6  247.10    5.50
   2   3  -5 3409.20   64.40
  -2  -3   5 3291.60   61.50
   2   3  -4    2.90    0.80
  -2  -3   4    0.90    0.70
   2   3  -3 2025.90   38.10
  -2  -3   3 1950.70   37.00
   2   3  -2  290.20    6.30
  -2  -3   2  277.00    5.80
   2   3  -1 3918.50   62.70
  -2  -3   1 3833.50   87.00
   2   3   0    9.20    0.70
  -2  -3   0    8.50    0.70
   2   3   1 6396.80  116.20
  -2  -3  -1 6596.30  206.70
   2   3   2  782.10   15.20
  -2  -3  -2  762.80   12.80
   2   3   3 4674.60   85.10
  -2  -3  -3 4672.30   73.80
   2   3   4   29.40    1.60
  -2  -3  -4   29.70    1.20
   2   3   5 7579.50  168.20
  -2  -3  -5 7763.90  139.70
   2   3   6  112.60    3.60
  -2  -3  -6  110.40    2.70
   2   3   7 3336.40   76.00
  -2  -3  -7 3389.20   62.90
   2   3   8    2.10    1.10
  -2  -3  -8    1.00    0.90
   2   3   9 2365.40   78.60
  -2  -3  -9 2234.50   53.00
   2   3  10  171.20    9.80
  -2  -3 -10  160.10    5.70
   2   3  11 1387.00   48.10
  -2  -3 -11 1378.60   48.10
   2   3  12   28.70    5.10
  -2  -3 -12   48.80    5.30
   2   3  13  275.60   11.10
  -2  -3 -13  254.60   11.10
   2   3  14   47.70    4.70
  -2  -3 -14   54.10    4.50
   2   3  15  281.50   12.50
  -2  -3 -15  279.60   12.50
   2   3  16   19.00    3.00
  -2  -3 -16    7.70    2.70
   2   3  17    9.50    3.80
  -2  -3 -17    6.00    3.40
   2   3  18   11.00    4.10
  -2  -3 -18    0.70    3.60
   2   3  19    8.50    3.00
  -2  -3 -19   18.50    3.10
   2   4 -18    8.20    2.90
  -2  -4  18    7.50    2.80
   2   4 -17    1.50    3.50
  -2  -4  17    6.20    3.60
   2   4 -16   19.80    4.50
  -2  -4  16   37.00    4.60
   2   4 -15  120.00    7.10
  -2  -4  15   93.60    6.60
   2   4 -14  141.60    7.70
  -2  -4  14  123.40    7.00
   2   4 -13  132.90    6.40
  -2  -4  13  111.70    6.10
   2   4 -12   36.10    4.40
  -2  -4  12   40.30    4.50
   2   4 -11  165.80    7.60
  -2  -4  11  167.70    7.60
   2   4 -10  874.80   30.80
  -2  -4  10  957.80   34.80
   2   4  -9   83.40    3.40
  -2  -4   9   76.50    4.50
   2   4  -8 1118.10   22.70
  -2  -4   8 1142.70   39.40
   2   4  -7  885.00   18.00
  -2  -4   7  825.30   17.40
   2   4  -6 2116.10   51.20
  -2  -4   6 2116.50   41.60
   2   4  -5  719.80   12.60
  -2  -4   5  694.50   14.10
   2   4  -4 1023.70   17.70
  -2  -4   4  984.50   19.80
   2   4  -3   17.60    1.00
  -2  -4   3   11.20    0.90
   2   4  -2 2309.40   46.10
  -2  -4   2 2357.10   58.30
   2   4  -1   15.20    1.00
  -2  -4   1   15.30    1.00
   2   4   0 4557.50   65.50
  -2  -4   0 4391.80   99.30
   2   4   1   58.20    1.20
  -2  -4  -1   55.40    1.40
   2   4   2 1811.80   35.00
  -2  -4  -2 1730.60   40.40
   2   4   3   73.20    1.70
  -2  -4  -3   73.20    1.70
   2   4   4  493.70    9.80
  -2  -4  -4  496.70   10.20
   2   4   5 1086.70   26.10
  -2  -4  -5 1121.00   21.90
   2   4   6 1042.40   25.10
  -2  -4  -6 1088.80   21.20
   2   4   7 1615.60   38.10
  -2  -4  -7 1613.80   30.90
   2   4   8  892.60   31.80
  -2  -4  -8  889.70   18.10
   2   4   9  317.30   12.70
  -2  -4  -9  315.70    8.50
   2   4  10  726.30   26.50
  -2  -4 -10  717.40   18.30
   2   4  11  320.60   13.80
  -2  -4 -11  333.50   14.10
   2   4  12   52.90    4.00
  -2  -4 -12   60.50    4.40
   2   4  13  105.50    5.50
  -2  -4 -13  123.10    6.30
   2   4  14  155.70    8.00
  -2  -4 -14  156.60    7.40
   2   4  15   54.60    4.30
  -2  -4 -15   58.40    4.90
   2   4  16   84.00    6.60
  -2  -4 -16   95.20    6.90
   2   4  17    2.40    2.60
  -2  -4 -17   -2.20    2.40
   2   4  18   47.90    5.60
  -2  -4 -18   21.10    4.50
   2   5 -18   10.40    4.30
  -2  -5  18   -4.00    4.00
   2   5 -17  276.10   14.80
  -2  -5  17  234.20   13.80
   2   5 -16   39.50    4.60
  -2  -5  16   21.70    3.50
   2   5 -15  337.40   14.70
  -2  -5  15  319.70   13.00
   2   5 -14   67.00    4.70
  -2  -5  14   75.50    5.00
   2   5 -13  322.40   13.20
  -2  -5  13  291.60   12.00
   2   5 -12  390.30   15.70
  -2  -5  12  457.20   18.00
   2   5 -11  324.20   14.20
  -2  -5  11  289.90   12.60
   2   5 -10 1008.90   37.00
  -2  -5  10 1066.60   38.40
   2   5  -9 1295.90   47.50
  -2  -5   9 1230.00   47.20
   2   5  -8 1018.70   24.80
  -2  -5   8 1039.60   37.10
   2   5  -7 1394.40   35.30
  -2  -5   7 1326.10   33.30
   2   5  -6 1871.20   32.50
  -2  -5   6 1780.00   42.50
   2   5  -5  543.70   20.20
  -2  -5   5  544.40   16.60
   2   5  -4  466.90    8.60
  -2  -5   4  470.20   10.10
   2   5  -3  373.10    9.30
  -2  -5   3  357.80    9.90
   2   5  -2  759.70   11.70
  -2  -5   2  735.30   14.70
   2   5  -1 2042.70   33.30
  -2  -5   1 2046.20   42.50
   2   5   0    6.00    0.70
  -2  -5   0    6.80    0.80
   2   5   1 1408.20   28.60
  -2  -5  -1 1324.50   23.20
   2   5   2  550.90    9.80
  -2  -5  -2  557.80    9.60
   2   5   3  525.50   11.20
  -2  -5  -3  519.30   11.30
   2   5   4  355.40    6.40
  -2  -5  -4  361.70    6.50
   2   5   5  170.30    4.00
  -2  -5  -5  184.00    4.40
   2   5   6 1081.00   21.40
  -2  -5  -6 1136.50   22.90
   2   5   7 1176.90   41.70
  -2  -5  -7 1196.30   28.90
   2   5   8  863.80   30.30
  -2  -5  -8  823.40   20.40
   2   5   9  886.80   32.90
  -2  -5  -9  879.70   22.00
   2   5  10  819.70   30.00
  -2  -5 -10  788.00   20.20
   2   5  11  223.30    9.90
  -2  -5 -11  244.60    7.00
   2   5  12  606.20   24.90
  -2  -5 -12  625.60   17.00
   2   5  13  208.00    9.50
  -2  -5 -13  210.70    6.50
   2   5  14  114.40    7.70
  -2  -5 -14  108.30    4.90
   2   5  15  221.10   10.20
  -2  -5 -15  239.10    7.50
   2   5  16  139.00    9.90
  -2  -5 -16  175.10   10.70
   2   5  17  259.30   15.20
  -2  -5 -17  310.20   17.20
   2   5  18   21.40    4.40
  -2  -5 -18   13.30    3.40
   2   6 -17   32.80    4.60
  -2  -6  17   28.70    3.90
   2   6 -16  576.90   28.90
  -2  -6  16  589.80   28.50
   2   6 -15   32.10    3.80
  -2  -6  15   45.00    4.50
   2   6 -14  327.20   14.20
  -2  -6  14  341.30   15.50
   2   6 -13    3.50    2.40
  -2  -6  13    7.20    2.50
   2   6 -12  452.50   18.50
  -2  -6  12  469.90   22.20
   2   6 -11  311.00   13.10
  -2  -6  11  298.60   12.70
   2   6 -10   78.00    8.60
  -2  -6  10   59.80    7.70
   2   6  -9   91.90    5.20
  -2  -6   9  121.20    6.00
   2   6  -8  279.40   15.10
  -2  -6   8  245.60   12.30
   2   6  -7  113.30    3.20
  -2  -6   7  100.50    5.10
   2   6  -6   47.60    2.90
  -2  -6   6   35.90    5.50
   2   6  -5    9.40    1.40
  -2  -6   5    4.10    1.10
   2   6  -4   72.90    1.90
  -2  -6   4   62.20    2.60
   2   6  -3  555.00    9.10
  -2  -6   3  548.90   11.10
   2   6  -2   12.30    0.90
  -2  -6   2   12.30    1.10
   2   6  -1  234.10    4.10
  -2  -6   1  232.80    4.70
   2   6   0   20.30    1.00
  -2  -6   0   17.60    0.80
   2   6   1   80.40    2.00
  -2  -6  -1   77.80    1.70
   2   6   2  204.10    4.20
  -2  -6  -2  194.50    3.50
   2   6   3  401.30    7.30
  -2  -6  -3  394.80    7.10
   2   6   4   26.00    1.20
  -2  -6  -4   26.50    1.40
   2   6   5   44.80    1.30
  -2  -6  -5   43.70    1.40
   2   6   6  114.00    3.90
  -2  -6  -6  134.40    4.60
   2   6   7  115.70    3.50
  -2  -6  -7  115.60    4.00
   2   6   8  389.80   10.40
  -2  -6  -8  399.50   10.90
   2   6   9  309.90    8.70
  -2  -6  -9  314.00    8.80
  -2  -6 -10  226.20    7.00
   2   6  11  208.60    9.70
  -2  -6 -11  210.70    6.70
   2   6  12  250.00   10.90
  -2  -6 -12  254.40    7.80
   2   6  13    7.50    2.60
  -2  -6 -13    3.30    2.00
   2   6  14  230.30   10.60
  -2  -6 -14  247.30    8.00
   2   6  15   -5.20    4.10
  -2  -6 -15   -0.70    1.20
   2   6  16  199.70   12.70
  -2  -6 -16  192.50   11.40
   2   6  17    7.30    4.80
  -2  -6 -17   22.40    5.10
   2   7 -16  108.50    7.40
  -2  -7  16  118.20    7.90
   2   7 -15  208.50   11.70
  -2  -7  15  208.70   12.40
   2   7 -14  185.90    9.50
  -2  -7  14  211.60   10.90
   2   7 -13  340.00   15.90
  -2  -7  13  309.90   15.60
   2   7 -12  179.10    8.90
  -2  -7  12  165.40    8.30
   2   7 -11  599.80   25.50
  -2  -7  11  585.40   24.70
   2   7 -10  104.40    6.90
  -2  -7  10  120.90    7.60
   2   7  -9  326.60   14.00
  -2  -7   9  366.80   14.90
   2   7  -8  233.40   10.40
  -2  -7   8  256.60   10.90
   2   7  -7  656.60   19.30
  -2  -7   7  727.20   28.30
   2   7  -6  738.30   16.10
  -2  -7   6  698.40   19.10
   2   7  -5  738.10   13.60
  -2  -7   5  729.50   19.90
   2   7  -4  187.60    4.30
  -2  -7   4  204.20    6.20
   2   7  -3 1203.90   21.20
  -2  -7   3 1215.90   25.10
   2   7  -2    0.30    0.80
  -2  -7   2    3.10    0.90
   2   7  -1  304.90    6.70
  -2  -7   1  318.10    6.00
   2   7   0   39.80    1.50
  -2  -7   0   37.30    1.40
   2   7   1  164.10    3.60
  -2  -7  -1  168.60    4.10
   2   7   2    3.40    0.80
  -2  -7  -2    4.50    0.80
   2   7   3  384.90    7.50
  -2  -7  -3  411.20    8.70
   2   7   4   86.10    2.40
  -2  -7  -4   84.50    2.50
   2   7   5  130.00    4.00
  -2  -7  -5  128.80    4.40
   2   7   6 1136.90   22.10
  -2  -7  -6 1160.60   22.50
   2   7   7  102.40    3.50
  -2  -7  -7   98.80    3.80
   2   7   8  458.80   12.30
  -2  -7  -8  476.90   13.00
   2   7   9   89.50    3.40
  -2  -7  -9   87.60    3.50
   2   7  10  306.10    8.70
  -2  -7 -10  324.70    9.60
   2   7  11  289.20    8.60
  -2  -7 -11  302.10    9.00
   2   7  12  309.50    9.30
  -2  -7 -12  307.30    9.50
   2   7  13  366.50   10.50
  -2  -7 -13  348.60   10.60
   2   7  14  190.00    6.60
  -2  -7 -14  190.40    7.00
   2   7  15  256.50   15.00
  -2  -7 -15  249.20   14.40
   2   7  16   69.00    7.10
  -2  -7 -16  110.40    8.90
   2   8 -15  108.00    8.10
  -2  -8  15   96.80    7.60
   2   8 -14  240.60   13.80
  -2  -8  14  229.10   14.40
   2   8 -13  197.50    9.40
  -2  -8  13  198.60    9.70
   2   8 -12  444.00   20.00
  -2  -8  12  451.80   20.40
   2   8 -11  540.50   21.40
  -2  -8  11  537.10   21.30
   2   8 -10  519.60   24.70
  -2  -8  10  544.60   26.20
   2   8  -9  469.20   19.80
  -2  -8   9  444.60   19.30
   2   8  -8  307.50   16.40
  -2  -8   8  262.60   14.80
   2   8  -7  619.90   25.40
  -2  -8   7  650.50   25.20
   2   8  -6 1175.30   30.60
  -2  -8   6 1274.10   45.80
   2   8  -5  324.00    7.70
  -2  -8   5  318.90    9.00
   2   8  -4 2594.80   43.50
  -2  -8   4 2701.30   64.10
   2   8  -3   42.10    1.80
  -2  -8   3   37.00    1.80
   2   8  -2 3153.40   60.40
  -2  -8   2 3230.70   52.70
   2   8  -1   19.20    1.30
  -2  -8   1   23.20    1.10
   2   8   0 2982.90   56.30
  -2  -8   0 3024.80   49.10
   2   8   1  211.70    4.90
  -2  -8  -1  211.80    5.10
   2   8   2 4514.00   86.00
  -2  -8  -2 4485.80   83.80
   2   8   3  149.90    4.80
  -2  -8  -3  137.00    3.10
   2   8   4 4991.00  112.40
  -2  -8  -4 4991.70   92.30
   2   8   5  493.50   13.00
  -2  -8  -5  455.70    9.50
   2   8   6 2866.50   66.40
  -2  -8  -6 2891.10   67.80
   2   8   7  426.30    9.20
  -2  -8  -7  441.90    9.10
   2   8   8  912.50   18.00
  -2  -8  -8  895.80   18.00
   2   8   9  310.40    9.40
  -2  -8  -9  313.40    9.40
   2   8  10  646.20   17.20
  -2  -8 -10  652.30   17.50
   2   8  11  228.50    7.40
  -2  -8 -11  228.70    7.40
   2   8  12  248.40    8.00
  -2  -8 -12  267.20    8.10
   2   8  13   95.80    7.00
  -2  -8 -13  112.60    4.50
   2   8  14   90.40    6.60
  -2  -8 -14   58.90    3.50
   2   8  15   38.90    5.00
  -2  -8 -15   33.90    4.10
   2   9 -14   52.30    5.10
   2   9 -13   78.50    6.10
  -2  -9  13   88.20    6.50
   2   9 -12   -6.70    2.40
  -2  -9  12    5.30    2.30
   2   9 -11  294.80   12.40
  -2  -9  11  317.50   14.00
   2   9 -10    1.70    2.40
  -2  -9  10   10.20    2.40
   2   9  -9  606.80   23.50
  -2  -9   9  610.40   24.20
   2   9  -8   26.30    4.20
  -2  -9   8   29.90    3.70
   2   9  -7 1311.20   46.80
  -2  -9   7 1275.30   47.40
   2   9  -6   11.70    3.50
  -2  -9   6    2.40    2.80
   2   9  -5 2728.50   91.40
  -2  -9   5 2643.70   64.10
   2   9  -4   99.00    3.70
  -2  -9   4  115.00    6.00
   2   9  -3 3135.50   72.40
  -2  -9   3 3042.20   57.80
   2   9  -2  129.70    4.30
  -2  -9   2  123.70    3.00
   2   9  -1 2409.90   55.70
  -2  -9   1 2327.60   38.10
   2   9   0   33.20    1.90
  -2  -9   0   27.00    1.20
   2   9   1 2254.80   52.90
  -2  -9  -1 2138.50   40.90
   2   9   2   38.50    2.10
  -2  -9  -2   30.30    1.60
   2   9   3 1565.90   38.00
  -2  -9  -3 1464.50   25.40
   2   9   4    5.30    1.10
  -2  -9  -4    4.90    1.20
   2   9   5 1523.00   35.80
  -2  -9  -5 1552.10   30.50
   2   9   6    1.20    1.10
  -2  -9  -6    3.10    0.90
   2   9   7  368.60   10.10
  -2  -9  -7  384.30   10.90
   2   9   8   33.80    1.40
  -2  -9  -8   31.70    2.60
   2   9   9  308.80    7.10
  -2  -9  -9  319.50   13.40
   2   9  10   27.20    2.20
  -2  -9 -10   42.00    2.80
   2   9  11  287.10   12.30
  -2  -9 -11  267.30    8.30
   2   9  12    5.70    2.70
  -2  -9 -12    4.60    1.80
   2   9  13  166.90   10.40
  -2  -9 -13  142.40    6.30
   2   9  14   14.10    3.40
  -2  -9 -14   16.60    3.20
   2  10 -13   46.30    4.40
   2  10 -12  195.30   11.60
   2  10 -11   60.70    5.60
  -2 -10  11   48.30    4.50
   2  10 -10  218.90   13.00
  -2 -10  10  214.10   12.40
   2  10  -9   32.90    4.60
  -2 -10   9   13.10    3.10
   2  10  -8  448.00   21.40
  -2 -10   8  398.20   20.50
   2  10  -7  298.10   13.70
  -2 -10   7  308.10   14.00
   2  10  -6  441.10   18.70
  -2 -10   6  381.00   15.90
   2  10  -5  132.10    7.50
  -2 -10   5  141.40    7.20
   2  10  -4  666.30   25.20
  -2 -10   4  622.20   16.40
   2  10  -3   24.60    3.10
  -2 -10   3   15.80    2.00
   2  10  -2  707.50   17.90
  -2 -10   2  661.10   17.30
   2  10  -1    3.30    1.30
  -2 -10   1    1.50    0.60
   2  10   0 1271.70   30.60
  -2 -10   0 1314.80   26.20
   2  10   1   15.90    1.10
  -2 -10  -1   13.40    1.30
   2  10   2 1025.40   24.80
  -2 -10  -2 1097.10   28.10
   2  10   3    3.30    0.70
  -2 -10  -3    6.00    2.20
   2  10   4 1033.30   38.90
  -2 -10  -4 1075.50   21.90
   2  10   5  157.00    7.70
  -2 -10  -5  179.60    6.20
   2  10   6  875.80   32.70
  -2 -10  -6  879.20   22.70
   2  10   7  223.00   10.30
  -2 -10  -7  231.10    7.00
   2  10   8  551.40   21.10
  -2 -10  -8  502.90   13.70
   2  10   9   79.30    5.50
  -2 -10  -9   86.50    4.00
   2  10  10  289.00   14.80
  -2 -10 -10  258.70    9.80
   2  10  11  130.30    8.70
  -2 -10 -11  107.10    5.00
   2  10  12   98.60    7.30
  -2 -10 -12   88.60    4.50
   2  10  13  148.70   10.30
  -2 -10 -13  124.80    5.80
   2  11 -11  263.50   14.40
   2  11 -10  109.90    9.00
   2  11  -9  333.90   17.10
  -2 -11   9  320.70   17.60
   2  11  -8  177.70   12.30
  -2 -11   8  142.90   10.90
   2  11  -7  284.30   14.90
  -2 -11   7  316.10   14.20
   2  11  -6  117.30    7.30
  -2 -11   6  106.40    5.90
   2  11  -5   25.50    4.40
  -2 -11   5   21.20    3.50
   2  11  -4   22.40    3.50
  -2 -11   4   22.40    3.00
   2  11  -3   12.60    3.60
  -2 -11   3    2.00    1.90
   2  11  -2   -5.60    2.90
  -2 -11   2   -6.00    2.60
   2  11  -1   24.40    3.80
  -2 -11   1   13.40    2.30
   2  11   0    0.70    2.30
  -2 -11   0    0.50    1.70
   2  11   1   12.80    3.00
  -2 -11  -1    2.60    1.90
   2  11   2   12.30    3.00
  -2 -11  -2   16.80    2.10
   2  11   3   18.30    3.90
  -2 -11  -3   20.30    2.70
   2  11   4   66.10    6.10
  -2 -11  -4   65.00    3.60
   2  11   5    2.80    2.50
  -2 -11  -5    3.40    1.80
   2  11   6  141.30    7.80
  -2 -11  -6  139.30    5.20
   2  11   7  198.00   10.40
  -2 -11  -7  199.80    9.70
   2  11   8  151.60    9.60
  -2 -11  -8  140.40    6.10
   2  11   9  247.60   13.80
  -2 -11  -9  236.00    9.20
   2  11  10   60.50    5.80
  -2 -11 -10   43.60    3.40
   2  11  11  335.80   17.40
  -2 -11 -11  317.40   11.80
   2  12  -9   -2.90    2.30
   2  12  -8   44.50    5.40
   2  12  -7    9.40    2.70
   2  12  -6   18.90    3.40
  -2 -12   6   18.90    2.60
   2  12  -5    6.10    3.10
  -2 -12   5   11.00    2.90
   2  12  -4  188.40   10.10
  -2 -12   4  166.00   10.00
   2  12  -3    8.70    3.40
  -2 -12   3    9.80    2.20
   2  12  -2  140.60    8.20
  -2 -12   2  131.10    5.90
   2  12  -1    9.50    3.40
  -2 -12   1   -2.70    2.20
   2  12   0  108.60    6.50
  -2 -12   0  116.60    4.80
   2  12   1   -4.90    3.00
  -2 -12  -1    2.40    2.20
   2  12   2  109.30    7.50
  -2 -12  -2  109.50    5.10
   2  12   3    9.50    3.10
  -2 -12  -3    4.10    1.80
   2  12   4  137.80    8.70
  -2 -12  -4  146.10    6.60
   2  12   5   73.60    5.80
  -2 -12  -5   59.00    3.40
   2  12   6    3.40    3.80
  -2 -12  -6    8.50    2.00
   2  12   7   13.00    4.20
  -2 -12  -7   16.30    2.70
   2  12   8   47.40    4.50
  -2 -12  -8   28.60    2.60
   2  12   9   10.50    3.20
  -2 -12  -9   16.00    2.40
   2  13  -5  159.00    9.80
   2  13  -4    9.80    3.80
   2  13  -3  223.30   12.70
  -2 -13   3  191.40   11.80
   2  13  -2   17.40    4.10
  -2 -13   2    9.70    3.10
   2  13  -1  203.60   11.70
  -2 -13   1  185.10   11.50
   2  13   0   -2.80    3.30
  -2 -13   0    1.30    1.90
   2  13   1  275.80   15.10
  -2 -13  -1  267.10   10.80
   2  13   2    5.40    2.70
  -2 -13  -2    8.30    2.00
   2  13   3  201.30   11.70
  -2 -13  -3  208.70    8.50
   2  13   4   55.50    4.90
  -2 -13  -4   48.90    3.70
   2  13   5  301.40   15.60
  -2 -13  -5  279.70   11.00
   3 -11  -3    6.80    2.40
  -3  11   3   -4.20    2.30
   3 -11  -2    8.10    2.20
  -3  11   2    7.50    2.30
   3 -11  -1   -0.50    1.70
  -3  11   1   -8.20    2.30
   3 -11   0    7.00    2.00
  -3  11   0    8.00    2.40
   3 -11   1   -2.50    1.70
  -3  11  -1   -2.80    2.10
   3 -11   2    6.40    4.20
  -3  11  -2    5.50    2.10
   3 -11   3    2.60    3.90
  -3  11  -3   14.00    2.30
   3 -11   4   16.40    3.30
  -3  11  -4    2.70    1.70
   3 -10  -7   41.80    5.40
  -3  10   7   19.40    2.60
   3 -10  -6    5.60    4.30
  -3  10   6   -0.30    1.50
   3 -10  -5   10.10    3.50
  -3  10   5    8.50    2.10
   3 -10  -4   10.70    4.20
  -3  10   4    0.10    2.60
   3 -10  -3    4.80    1.80
  -3  10   3    5.60    2.70
   3 -10  -2    9.80    2.60
  -3  10   2    6.60    1.80
   3 -10  -1    8.60    2.20
  -3  10   1   11.70    2.50
   3 -10   0    4.30    3.30
   3 -10   1   -0.80    2.20
  -3  10  -1   -0.80    2.10
   3 -10   2   15.90    2.60
  -3  10  -2   10.00    2.30
   3 -10   3   21.40    3.20
  -3  10  -3   21.90    2.50
  -3  10  -4    3.50    2.20
   3 -10   5   -4.70    2.60
  -3  10  -5    4.50    1.70
   3 -10   6   18.60    4.20
  -3  10  -6   12.80    1.90
   3 -10   7   -4.00    3.10
  -3  10  -7    5.00    1.80
   3 -10   8    9.00    2.70
   3 -10   9    9.60    3.70
   3  -9 -10   -0.80    3.70
  -3   9  10    4.20    2.20
   3  -9  -9    5.00    3.90
  -3   9   9    1.20    2.10
   3  -9  -8   28.60    3.90
  -3   9   8   14.50    2.30
  -3   9   7    5.20    1.80
   3  -9  -6   24.10    4.50
  -3   9   6    9.20    2.20
  -3   9   5    0.60    1.50
   3  -9  -4   -3.60    3.90
  -3   9   4    3.50    1.50
  -3   9   3   -0.20    1.20
   3  -9  -2   13.90    3.20
  -3   9   2   10.60    2.50
   3  -9  -1    2.00    1.90
  -3   9   1    2.40    1.80
   3  -9   0    7.60    2.30
  -3   9   0    1.20    1.90
   3  -9   1   -2.80    2.00
  -3   9  -1    3.40    1.70
   3  -9   2   -4.90    2.20
  -3   9  -2   -1.10    1.60
   3  -9   3   -1.70    1.80
  -3   9  -3   -1.60    1.60
   3  -9   4    0.40    2.40
  -3   9  -4    9.90    2.10
   3  -9   5    8.00    2.60
  -3   9  -5   21.30    2.10
   3  -9   6    1.50    2.70
  -3   9  -6   -0.30    1.10
   3  -9   7    6.00    3.40
  -3   9  -7    1.10    1.40
   3  -9   8    2.40    3.20
  -3   9  -8    6.10    1.40
   3  -9   9   11.20    3.50
  -3   9  -9   13.80    1.50
  -3   9 -10    5.80    1.40
  -3   9 -11   15.30    1.90
   3  -8 -12    6.30    2.50
  -3   8  12    0.00    2.00
   3  -8 -11    0.70    1.90
  -3   8  11    4.10    2.40
   3  -8 -10   -1.80    1.50
  -3   8  10   -0.50    1.90
   3  -8  -9    2.00    4.00
  -3   8   9    0.80    2.20
   3  -8  -8    9.10    2.00
   3  -8  -7    5.80    1.70
  -3   8   7    3.30    1.70
   3  -8  -6    5.90    3.20
  -3   8   6    5.70    1.70
   3  -8  -5    5.40    1.30
  -3   8   5    4.00    1.50
   3  -8  -4    0.10    1.00
  -3   8   4    1.80    1.20
   3  -8  -3    4.10    1.60
  -3   8   3    2.90    2.70
   3  -8  -2   -0.10    1.60
  -3   8   2    2.80    1.70
   3  -8  -1    1.70    1.00
  -3   8   1   -0.60    1.30
   3  -8   0   13.80    1.20
  -3   8   0   24.00    2.30
   3  -8   1    3.30    1.10
  -3   8  -1    9.20    1.80
   3  -8   2    9.70    1.20
  -3   8  -2   14.80    1.80
   3  -8   3   -0.10    1.00
  -3   8  -3    3.10    1.50
   3  -8   4   11.40    2.60
  -3   8  -4   11.20    1.70
   3  -8   5    4.70    1.80
  -3   8  -5    1.20    0.90
   3  -8   6    4.70    2.60
  -3   8  -6    1.70    1.10
   3  -8   7    1.50    2.10
  -3   8  -7    5.40    1.40
   3  -8   8   -3.80    1.90
  -3   8  -8    1.20    1.20
   3  -8   9    3.70    2.40
  -3   8  -9    1.70    1.40
  -3   8 -10    4.10    1.30
  -3   8 -11   -1.80    1.60
  -3   8 -12    1.00    1.30
  -3   8 -13   -0.50    1.50
   3  -7 -13    0.80    1.80
  -3   7  13    5.60    2.70
   3  -7 -12   -4.20    3.60
  -3   7  12   -0.20    1.90
   3  -7 -11    6.70    2.30
  -3   7  11    5.80    3.70
   3  -7 -10    9.80    2.00
  -3   7  10    6.30    1.60
   3  -7  -9   -2.70    1.70
  -3   7   9    6.60    3.20
   3  -7  -8   -4.20    3.70
  -3   7   8    1.80    2.00
   3  -7  -7    4.10    1.80
  -3   7   7    1.90    2.00
   3  -7  -6   -2.00    1.40
  -3   7   6    1.90    1.20
   3  -7  -5    4.00    0.90
  -3   7   5    0.60    1.70
   3  -7  -4    9.60    1.00
  -3   7   4   11.00    1.50
   3  -7  -3    5.40    0.90
  -3   7   3    9.20    1.00
   3  -7  -2    2.50    1.00
  -3   7   2    4.60    0.90
   3  -7  -1    9.60    1.40
  -3   7   1    9.10    0.90
   3  -7   0    9.80    1.20
  -3   7   0   13.50    1.20
   3  -7   1    7.10    1.10
  -3   7  -1    6.20    1.00
   3  -7   2    1.10    0.40
  -3   7  -2   -0.60    0.80
   3  -7   3    8.80    0.70
  -3   7  -3    9.10    0.90
   3  -7   4    0.80    0.60
  -3   7  -4    0.90    1.50
   3  -7   5    1.60    0.70
  -3   7  -5    4.50    1.20
   3  -7   6   10.50    0.90
  -3   7  -6    9.40    1.20
   3  -7   7    8.40    1.20
  -3   7  -7    5.80    1.40
   3  -7   8    6.20    3.00
  -3   7  -8   -4.30    1.70
   3  -7   9    3.00    2.10
  -3   7  -9    1.50    3.00
  -3   7 -10    2.10    1.40
  -3   7 -11   -2.40    1.50
  -3   7 -12    2.20    1.70
  -3   7 -13   -0.40    1.90
  -3   7 -14    8.00    2.10
   3  -6 -14   -4.50    2.30
  -3   6  14    2.30    1.90
   3  -6 -13   10.00    2.80
  -3   6  13    6.80    2.20
   3  -6 -12    5.50    3.30
  -3   6  12   -3.30    1.70
   3  -6 -11   -7.30    2.80
  -3   6  11    6.30    3.20
   3  -6 -10    5.00    2.20
  -3   6  10    8.60    1.90
  -3   6   9   20.40    2.30
   3  -6  -8   -2.00    2.10
  -3   6   8    2.40    1.60
   3  -6  -7    9.80    2.50
  -3   6   7    1.90    1.30
   3  -6  -6    8.30    1.60
  -3   6   6    7.10    0.50
   3  -6  -5    6.00    1.50
  -3   6   5    5.10    1.00
   3  -6  -4    3.40    0.80
  -3   6   4    3.30    1.10
   3  -6  -3    3.10    0.80
  -3   6   3    1.90    1.00
   3  -6  -2    7.10    0.90
  -3   6   2    5.30    0.80
   3  -6  -1    3.90    1.10
  -3   6   1    0.50    0.70
   3  -6   0   26.40    1.30
  -3   6   0   24.00    1.30
   3  -6   1   25.50    0.70
  -3   6  -1   25.70    1.40
   3  -6   2   42.20    1.00
  -3   6  -2   39.10    2.30
   3  -6   3    9.10    0.60
  -3   6  -3    9.10    1.00
   3  -6   4   28.00    1.00
  -3   6  -4   26.90    2.00
   3  -6   5    8.20    0.70
  -3   6  -5    7.90    1.10
   3  -6   6   11.20    0.70
  -3   6  -6   17.10    1.30
   3  -6   7    4.70    1.20
  -3   6  -7    5.00    1.30
   3  -6   8    8.70    1.20
  -3   6  -8    4.80    1.00
   3  -6   9   -0.70    1.00
  -3   6  -9    0.20    1.50
  -3   6 -10    2.10    1.60
  -3   6 -11    4.00    1.50
  -3   6 -12   -1.00    1.70
  -3   6 -13   12.10    2.20
  -3   6 -14   -0.60    2.10
  -3   6 -15   10.60    2.50
  -3   6 -16    2.20    2.40
   3  -5 -15   11.20    3.60
  -3   5  15    3.90    2.60
   3  -5 -14   10.10    3.70
  -3   5  14   -0.90    2.70
   3  -5 -13    2.80    3.30
  -3   5  13   -2.50    2.20
   3  -5 -12   22.80    4.00
  -3   5  12   13.00    2.60
   3  -5 -11    6.90    3.00
  -3   5  11    5.80    2.40
   3  -5 -10   -1.20    1.60
  -3   5  10    8.90    1.90
   3  -5  -9   -3.10    2.30
  -3   5   9    0.00    0.80
   3  -5  -8   12.30    2.10
  -3   5   8   12.70    1.10
  -3   5   7    0.80    0.60
   3  -5  -6   -1.10    1.30
  -3   5   6    0.90    0.60
   3  -5  -5   16.70    2.10
  -3   5   5   16.90    0.80
   3  -5  -4   11.20    2.20
  -3   5   4   13.10    1.20
   3  -5  -3    5.80    0.90
  -3   5   3    5.70    1.00
   3  -5  -2    3.50    0.60
  -3   5   2   -0.90    0.90
   3  -5  -1   15.00    0.80
  -3   5   1   18.60    1.00
   3  -5   0   13.40    0.60
  -3   5   0   11.70    0.80
   3  -5   1    5.10    0.50
  -3   5  -1    7.60    1.20
   3  -5   2    1.00    0.50
  -3   5  -2   -1.70    1.00
   3  -5   3   18.10    0.90
  -3   5  -3   13.70    1.20
   3  -5   4   16.40    0.80
  -3   5  -4   16.30    1.10
   3  -5   5    2.70    0.50
  -3   5  -5    5.80    1.00
   3  -5   6    3.80    0.60
  -3   5  -6    2.30    0.80
   3  -5   7   65.10    2.30
  -3   5  -7   63.90    2.60
   3  -5   8    8.60    1.10
  -3   5  -8    6.70    0.90
   3  -5   9    1.70    1.00
  -3   5  -9    3.40    0.80
   3  -5  10    7.20    1.40
  -3   5 -10    4.20    1.60
   3  -5  11   46.00    3.30
  -3   5 -11   41.30    2.80
  -3   5 -12    1.10    1.50
  -3   5 -13    1.90    1.90
  -3   5 -14   -4.70    2.20
  -3   5 -15    1.00    2.20
  -3   5 -16   13.10    3.00
  -3   5 -17    1.60    2.50
   3  -4 -16    2.40    3.50
  -3   4  16   -3.30    3.90
   3  -4 -15    7.00    3.00
  -3   4  15    2.50    2.70
   3  -4 -14    1.60    2.40
  -3   4  14    1.00    2.90
   3  -4 -13    9.60    3.70
  -3   4  13   -1.80    3.20
   3  -4 -12    3.70    2.90
   3  -4 -11   11.00    3.10
  -3   4  11   21.00    2.40
   3  -4 -10   -0.60    2.40
  -3   4  10    1.20    1.10
   3  -4  -9    2.30    1.70
  -3   4   9    4.00    1.00
   3  -4  -8   15.30    2.90
  -3   4   8    4.30    0.90
   3  -4  -7   29.10    2.70
  -3   4   7   28.90    1.40
   3  -4  -6    7.10    2.00
  -3   4   6    5.80    0.70
   3  -4  -5    0.70    1.10
  -3   4   5    2.30    0.60
   3  -4  -4    3.90    1.50
  -3   4   4    2.10    0.60
   3  -4  -3    8.00    0.60
  -3   4   3    8.70    0.50
   3  -4  -2    0.80    0.40
  -3   4   2    3.20    0.70
   3  -4  -1   52.10    1.10
  -3   4   1   51.00    1.60
   3  -4   0    0.30    0.30
  -3   4   0    0.20    0.80
   3  -4   1   25.00    0.80
  -3   4  -1   28.70    1.40
   3  -4   2   14.60    0.60
  -3   4  -2   17.70    1.00
   3  -4   3   89.60    1.80
  -3   4  -3   90.50    2.20
   3  -4   4    2.80    0.50
  -3   4  -4    2.40    0.50
   3  -4   5    8.40    0.60
  -3   4  -5    7.90    1.00
   3  -4   6   12.50    0.70
  -3   4  -6   12.50    1.00
   3  -4   7    4.80    0.70
  -3   4  -7    6.40    0.90
   3  -4   8   15.00    0.90
  -3   4  -8   13.90    0.90
   3  -4   9    5.00    1.30
  -3   4  -9    8.10    0.80
   3  -4  10   20.70    2.00
  -3   4 -10   12.30    1.00
   3  -4  11   -1.30    1.40
  -3   4 -11    2.00    1.00
   3  -4  12   61.00    3.60
  -3   4 -12   43.50    3.10
   3  -4  13   30.90    2.80
  -3   4 -13   32.40    3.10
  -3   4 -14    8.80    2.50
  -3   4 -15    0.50    2.30
  -3   4 -16   28.60    3.30
  -3   4 -17   16.80    3.20
   3  -3 -17   13.40    4.10
  -3   3  17    3.50    4.00
   3  -3 -16    5.90    2.60
  -3   3  16   -0.80    2.60
  -3   3  15   11.80    4.30
   3  -3 -14    0.00    3.40
  -3   3  14   11.00    3.80
   3  -3 -13   21.50    3.00
  -3   3  13   24.40    3.50
  -3   3  12   -3.80    3.20
   3  -3 -11    5.60    3.20
  -3   3  11    8.80    3.30
   3  -3 -10    2.10    2.80
  -3   3  10   -2.10    2.90
   3  -3  -9    5.80    2.50
  -3   3   9    0.00    1.10
   3  -3  -8   28.70    3.10
  -3   3   8   24.70    1.30
   3  -3  -7    2.50    2.10
  -3   3   7    4.00    0.90
   3  -3  -6   12.90    2.30
  -3   3   6    6.20    0.80
   3  -3  -5    6.00    0.70
  -3   3   5    8.60    0.80
   3  -3  -4    6.90    0.70
  -3   3   4    5.00    0.70
   3  -3  -3   25.70    1.30
  -3   3   3   27.60    1.00
   3  -3  -2   45.00    1.20
  -3   3   2   42.50    1.10
   3  -3  -1   19.90    0.60
  -3   3   1   22.00    1.00
   3  -3   0    2.10    0.40
  -3   3   0    1.50    0.70
   3  -3   1    2.30    0.30
  -3   3  -1    4.90    0.70
   3  -3   2    1.10    0.30
  -3   3  -2    2.00    1.10
   3  -3   3    0.50    0.30
  -3   3  -3    1.60    0.30
   3  -3   4   39.70    1.00
  -3   3  -4   41.20    1.40
   3  -3   5   34.30    0.90
  -3   3  -5   35.80    1.10
   3  -3   6   30.40    1.00
  -3   3  -6   33.70    2.20
   3  -3   7    1.00    0.60
  -3   3  -7    4.30    1.30
   3  -3   8   29.50    1.20
  -3   3  -8   32.10    1.20
   3  -3   9   15.30    1.10
  -3   3  -9   15.60    1.00
   3  -3  10   26.90    2.20
  -3   3 -10   28.20    1.30
   3  -3  11   15.50    2.10
  -3   3 -11   16.50    1.00
   3  -3  12   38.00    3.00
  -3   3 -12   25.50    1.60
   3  -3  13    6.70    1.50
  -3   3 -13    7.00    2.40
   3  -3  14    2.30    1.50
  -3   3 -14    0.20    1.50
   3  -3  15   31.10    3.00
  -3   3 -15   34.40    3.00
  -3   3 -16    3.10    2.90
  -3   3 -17   -2.50    2.70
  -3   3 -18    2.30    2.80
   3  -2 -17    5.90    3.80
  -3   2  17   -4.30    4.00
   3  -2 -16    3.00    2.80
  -3   2  16   12.20    3.20
   3  -2 -15    4.30    3.50
  -3   2  15    2.90    3.60
   3  -2 -14   10.40    2.80
  -3   2  14    6.10    1.80
   3  -2 -13    8.80    3.70
  -3   2  13   12.00    3.90
   3  -2 -12   26.30    3.40
  -3   2  12   32.70    3.20
   3  -2 -11   21.40    3.60
  -3   2  11    8.80    3.20
   3  -2 -10   -0.70    1.90
  -3   2  10   11.50    2.40
   3  -2  -9    6.70    2.70
  -3   2   9    5.50    1.00
   3  -2  -8   46.50    3.40
  -3   2   8   37.70    1.70
   3  -2  -7    0.40    2.30
  -3   2   7    2.10    0.90
   3  -2  -6    7.80    0.80
  -3   2   6   11.20    0.90
   3  -2  -5   39.80    1.40
  -3   2   5   40.90    1.30
   3  -2  -4   30.70    1.10
  -3   2   4   27.30    1.10
   3  -2  -3    2.20    0.60
  -3   2   3    1.60    0.60
   3  -2  -2    4.30    0.70
  -3   2   2    2.30    0.50
   3  -2  -1   15.40    0.60
  -3   2   1   15.10    0.80
   3  -2   0   15.40    0.50
  -3   2   0   13.70    0.90
   3  -2   1    2.20    0.30
  -3   2  -1    3.60    0.30
   3  -2   2   10.60    1.10
  -3   2  -2   10.40    1.20
   3  -2   3    2.60    0.90
  -3   2  -3    0.30    1.10
   3  -2   4    7.90    0.40
  -3   2  -4    8.70    0.40
   3  -2   5    4.10    0.40
  -3   2  -5    0.60    0.70
   3  -2   6   27.10    0.90
  -3   2  -6   20.60    1.30
   3  -2   7    0.90    0.50
  -3   2  -7    4.20    0.60
   3  -2   8    1.50    0.90
  -3   2  -8    1.40    0.60
   3  -2   9    4.70    0.80
  -3   2  -9    3.50    0.70
   3  -2  10   38.20    2.20
  -3   2 -10   39.40    1.50
   3  -2  11    1.60    1.80
  -3   2 -11    3.30    0.80
   3  -2  12   11.60    2.20
  -3   2 -12    8.70    1.10
   3  -2  13    2.00    1.50
  -3   2 -13    0.90    1.50
   3  -2  14   42.20    3.60
  -3   2 -14   38.30    3.50
   3  -2  15   -0.40    2.30
  -3   2 -15   -1.60    2.70
   3  -2  16    6.50    2.60
  -3   2 -16   -2.50    2.60
  -3   2 -17   -1.80    1.80
  -3   2 -18    6.70    3.00
   3  -1 -18    1.80    3.10
  -3   1  18   -7.50    2.90
   3  -1 -17   10.40    4.30
   3  -1 -16    7.80    4.10
  -3   1  16    2.90    3.80
   3  -1 -15   -0.70    2.10
  -3   1  15   -0.70    2.70
   3  -1 -14    1.70    3.50
  -3   1  14    2.80    2.30
   3  -1 -13   17.90    3.90
  -3   1  13   21.80    3.80
   3  -1 -12    2.00    2.30
  -3   1  12   -5.00    2.00
   3  -1 -11   -8.30    2.90
  -3   1  11    9.60    3.30
   3  -1 -10   -0.50    2.80
  -3   1  10    6.90    3.40
   3  -1  -9   21.90    2.50
  -3   1   9   11.30    1.30
   3  -1  -8    1.50    2.20
  -3   1   8   -1.20    0.80
   3  -1  -7    0.30    1.00
  -3   1   7   -0.10    0.70
   3  -1  -6   -1.90    0.90
  -3   1   6    3.50    0.90
   3  -1  -5   -2.60    0.70
  -3   1   5    0.40    0.60
   3  -1  -4   32.10    1.30
  -3   1   4   29.00    1.20
   3  -1  -3   20.40    1.00
  -3   1   3   19.60    0.90
   3  -1  -2   18.40    0.80
  -3   1   2   20.80    0.80
   3  -1  -1   85.70    1.80
  -3   1   1   83.90    2.10
   3  -1   0   47.70    1.10
  -3   1   0   51.30    2.00
   3  -1   1  125.60    2.10
  -3   1  -1  131.60    2.60
   3  -1   2   -0.60    0.80
  -3   1  -2    1.40    1.30
   3  -1   3   62.40    1.10
  -3   1  -3   62.20    1.30
   3  -1   4   10.80    0.40
  -3   1  -4   11.80    0.60
   3  -1   5   40.50    0.90
  -3   1  -5   34.00    1.70
   3  -1   6   10.80    0.70
  -3   1  -6   13.40    1.20
   3  -1   7   29.30    1.20
  -3   1  -7   28.60    0.90
   3  -1   8   16.70    1.10
  -3   1  -8   17.00    0.80
   3  -1   9    6.70    0.90
  -3   1  -9    5.30    0.70
   3  -1  10   -1.10    1.10
  -3   1 -10    0.40    0.70
   3  -1  11    5.10    1.80
  -3   1 -11    2.20    0.70
   3  -1  12   -3.20    2.10
  -3   1 -12    1.90    0.70
   3  -1  13    2.80    1.10
  -3   1 -13   -1.40    0.60
   3  -1  14   10.60    2.70
  -3   1 -14   14.20    2.90
   3  -1  15    5.90    2.10
  -3   1 -15    5.90    2.90
   3  -1  16   -2.00    2.70
  -3   1 -16    9.50    3.00
   3  -1  17    4.80    2.80
  -3   1 -17   -6.60    2.70
  -3   1 -18   -2.00    2.10
  -3   1 -19    6.90    3.40
   3   0 -18   -3.20    3.10
  -3   0  18   -7.40    2.80
   3   0 -17   -9.30    3.90
  -3   0  17    6.00    4.10
   3   0 -16    8.70    3.60
   3   0 -15   -2.20    3.40
  -3   0  15   12.10    3.90
   3   0 -14   -4.00    2.40
  -3   0  14   -7.30    2.60
   3   0 -13   -2.10    2.10
  -3   0  13    6.70    2.70
   3   0 -12   -0.90    2.20
  -3   0  12    1.60    2.30
   3   0 -11    5.20    2.30
  -3   0  11   15.50    2.80
  -3   0  10    3.10    3.00
   3   0  -9   11.40    3.10
  -3   0   9    1.10    2.60
   3   0  -8   15.70    1.90
  -3   0   8   10.80    1.10
   3   0  -7    5.30    0.90
  -3   0   7    4.40    0.90
   3   0  -6   23.40    1.20
  -3   0   6   19.50    1.20
   3   0  -5    1.80    0.90
  -3   0   5    3.30    0.70
   3   0  -4   55.30    1.60
  -3   0   4   53.00    1.60
   3   0  -3    6.40    0.70
  -3   0   3    7.90    0.80
   3   0  -2   22.50    1.00
  -3   0   2   18.10    0.80
   3   0  -1   10.70    0.60
  -3   0   1   12.10    0.70
   3   0   0    3.60    0.40
  -3   0   0    6.60    0.70
   3   0   1   72.00    1.30
  -3   0  -1   76.20    2.10
   3   0   2    5.30    0.40
  -3   0  -2    5.00    0.50
   3   0   3    8.70    0.40
  -3   0  -3   11.60    0.80
   3   0   4   22.60    0.70
  -3   0  -4   23.90    1.10
   3   0   5    5.00    0.40
  -3   0  -5    7.90    0.70
   3   0   6    0.60    0.50
  -3   0  -6    0.60    0.50
   3   0   7    4.60    0.80
  -3   0  -7    5.90    0.50
   3   0   8   42.70    1.80
  -3   0  -8   44.30    1.20
   3   0   9    0.20    0.80
  -3   0  -9    5.50    1.10
   3   0  10    8.50    1.90
  -3   0 -10    6.10    0.60
  -3   0 -11   -0.50    0.60
   3   0  12    9.70    1.90
  -3   0 -12    8.20    0.70
   3   0  13   43.00    3.10
  -3   0 -13   32.90    1.30
   3   0  14    9.60    3.00
  -3   0 -14    4.00    2.80
   3   0  15    1.70    1.80
  -3   0 -15    3.00    2.00
   3   0  16   -1.20    2.60
   3   0  17   11.10    2.70
  -3   0 -17   16.10    2.80
   3   0  18   19.20    3.70
  -3   0 -18    2.90    3.30
  -3   0 -19   19.00    3.20
   3   1 -18    5.80    3.90
  -3  -1  18   11.00    4.60
   3   1 -17   -0.80    3.90
  -3  -1  17   15.40    4.30
   3   1 -16   15.60    4.20
  -3  -1  16   27.00    4.70
   3   1 -15   10.90    3.90
  -3  -1  15    3.60    4.00
   3   1 -14    2.20    3.40
  -3  -1  14    2.30    3.60
   3   1 -13    8.40    3.30
  -3  -1  13   -1.40    3.40
   3   1 -12   38.60    4.20
  -3  -1  12   23.70    4.10
  -3  -1  11    9.50    3.50
   3   1 -10   -0.40    2.10
  -3  -1  10   -3.90    2.10
   3   1  -9    2.60    1.60
  -3  -1   9    2.20    2.00
   3   1  -8   59.40    2.70
  -3  -1   8   44.60    2.40
   3   1  -7   19.80    1.20
  -3  -1   7   20.30    1.10
   3   1  -6   39.30    1.60
  -3  -1   6   45.20    1.70
   3   1  -5    3.70    0.90
  -3  -1   5    7.40    1.00
   3   1  -4  113.50    2.80
  -3  -1   4  113.60    2.80
   3   1  -3    0.30    0.70
  -3  -1   3    0.90    0.70
   3   1  -2  201.90    4.40
  -3  -1   2  202.80    4.40
   3   1  -1   63.50    1.70
  -3  -1   1   63.10    1.60
   3   1   0  358.90    7.20
  -3  -1   0  358.80    6.30
   3   1   1   60.10    1.20
  -3  -1  -1   63.80    1.60
   3   1   2  249.00    4.00
  -3  -1  -2  249.80    4.40
   3   1   3   17.80    0.70
  -3  -1  -3   18.60    1.10
   3   1   4  126.60    2.10
  -3  -1  -4  130.80    3.00
   3   1   5    9.20    0.80
  -3  -1  -5   13.10    0.80
   3   1   6   74.80    2.40
  -3  -1  -6   77.30    2.10
   3   1   7    1.50    0.70
  -3  -1  -7    2.90    0.70
   3   1   8   51.70    2.10
  -3  -1  -8   52.80    1.70
   3   1   9   13.10    1.20
  -3  -1  -9   17.90    1.10
   3   1  10    6.20    2.00
  -3  -1 -10    3.40    0.60
   3   1  11   21.70    3.00
  -3  -1 -11   13.60    0.90
   3   1  12    4.40    2.60
  -3  -1 -12    4.30    0.70
   3   1  13   37.40    3.50
  -3  -1 -13   29.50    1.30
   3   1  14    0.90    3.00
  -3  -1 -14    8.90    3.10
   3   1  15    8.70    3.20
  -3  -1 -15   -2.60    3.00
   3   1  16    5.00    2.30
  -3  -1 -16    6.20    2.30
   3   1  17   26.90    4.20
  -3  -1 -17   34.40    4.10
   3   1  18    1.70    2.10
  -3  -1 -18   -3.70    2.40
   3   1  19   19.10    3.90
  -3  -1 -19   -3.80    3.10
   3   2 -18   21.90    4.70
  -3  -2  18    2.50    4.00
   3   2 -17    3.40    4.30
  -3  -2  17   -3.70    4.20
   3   2 -16    3.20    4.00
  -3  -2  16   12.90    4.00
   3   2 -15   -0.40    3.90
  -3  -2  15    3.00    3.60
  -3  -2  14    6.40    2.90
   3   2 -13   15.00    3.00
  -3  -2  13    9.00    2.90
   3   2 -12   14.70    3.60
  -3  -2  12   12.90    2.60
   3   2 -11   -0.70    3.40
  -3  -2  11    3.00    3.00
   3   2 -10   10.90    2.40
  -3  -2  10   14.90    2.70
   3   2  -9   49.90    2.70
  -3  -2   9   58.70    4.40
   3   2  -8   29.40    1.50
  -3  -2   8   31.20    1.90
   3   2  -7   -0.20    0.80
  -3  -2   7    1.50    0.80
   3   2  -6   42.10    2.00
  -3  -2   6   40.20    1.50
   3   2  -5   45.90    1.70
  -3  -2   5   41.90    1.60
   3   2  -4   63.30    1.80
  -3  -2   4   63.90    1.80
   3   2  -3   34.60    1.30
  -3  -2   3   33.20    1.20
   3   2  -2   28.20    1.10
  -3  -2   2   25.50    1.10
   3   2  -1   91.30    2.30
  -3  -2   1   85.40    2.20
   3   2   0   50.00    1.60
  -3  -2   0   54.90    1.60
   3   2   1   74.20    1.70
  -3  -2  -1   73.20    1.60
   3   2   2   59.20    1.20
  -3  -2  -2   59.00    1.30
   3   2   3   16.80    0.60
  -3  -2  -3   18.40    1.00
   3   2   4    1.20    0.60
  -3  -2  -4   -0.80    0.80
   3   2   5    4.70    0.70
  -3  -2  -5    2.50    0.60
   3   2   6    2.80    0.90
  -3  -2  -6    2.10    0.60
   3   2   7    0.70    0.70
  -3  -2  -7   -1.00    0.70
   3   2   8   10.20    1.10
  -3  -2  -8    7.60    0.40
   3   2   9    1.90    1.40
  -3  -2  -9    1.70    1.00
   3   2  10   10.00    1.90
  -3  -2 -10    6.50    1.40
   3   2  11    2.80    2.70
  -3  -2 -11    4.80    1.40
   3   2  12   27.80    3.60
  -3  -2 -12   40.20    3.70
   3   2  13    9.00    3.00
  -3  -2 -13   12.70    3.20
   3   2  14   -2.80    2.80
  -3  -2 -14   -1.50    2.80
   3   2  15    7.80    3.10
  -3  -2 -15    2.10    3.00
   3   2  16    5.10    2.20
  -3  -2 -16    7.20    2.40
   3   2  17   -3.40    2.00
  -3  -2 -17    6.20    2.50
   3   2  18   23.60    4.10
  -3  -2 -18   20.20    4.20
   3   2  19    1.00    2.40
  -3  -2 -19    6.40    2.80
   3   3 -18   -6.20    2.80
  -3  -3  18    3.50    2.80
   3   3 -17    9.80    3.20
  -3  -3  17   10.70    4.20
   3   3 -16    1.90    3.60
  -3  -3  16   -5.60    3.40
   3   3 -15    6.20    3.40
  -3  -3  15   11.10    3.80
   3   3 -14   -2.40    2.50
  -3  -3  14    5.20    2.80
   3   3 -13   38.80    4.10
  -3  -3  13   52.50    4.00
   3   3 -12   -0.90    3.30
  -3  -3  12    9.10    3.30
   3   3 -11   18.90    3.00
  -3  -3  11    7.10    2.50
   3   3 -10    1.60    1.70
  -3  -3  10    5.30    2.80
   3   3  -9   67.70    3.30
  -3  -3   9   68.40    4.30
   3   3  -8    2.80    0.90
  -3  -3   8    5.00    2.30
   3   3  -7    8.70    1.10
  -3  -3   7    9.40    1.00
   3   3  -6   17.20    1.10
  -3  -3   6   20.00    1.10
   3   3  -5   76.90    2.20
  -3  -3   5   75.20    2.30
   3   3  -4   13.00    1.10
  -3  -3   4   12.80    1.00
   3   3  -3   -0.40    0.80
  -3  -3   3   -1.00    0.70
   3   3  -2   12.60    1.00
  -3  -3   2    7.70    0.80
   3   3  -1   17.60    0.90
  -3  -3   1   16.30    0.90
   3   3   0    2.50    0.90
  -3  -3   0    2.80    0.80
   3   3   1    1.10    0.50
  -3  -3  -1    3.10    0.50
   3   3   2   41.30    1.10
  -3  -3  -2   42.70    1.30
   3   3   3   14.80    0.50
  -3  -3  -3   15.60    0.90
   3   3   4    9.50    0.50
  -3  -3  -4   11.40    0.90
   3   3   5   32.70    1.60
  -3  -3  -5   33.40    1.10
   3   3   6   22.10    1.30
  -3  -3  -6   24.20    0.90
   3   3   7    9.50    1.10
  -3  -3  -7    6.10    0.60
   3   3   8    4.10    2.20
  -3  -3  -8    8.70    0.80
   3   3   9   11.50    2.60
  -3  -3  -9    8.50    0.70
   3   3  10    6.70    2.40
  -3  -3 -10    3.30    1.40
   3   3  11   29.30    2.80
  -3  -3 -11   22.80    1.30
   3   3  12   -0.50    2.60
  -3  -3 -12   -1.30    0.90
   3   3  13    4.90    3.10
  -3  -3 -13    4.90    2.90
   3   3  14    0.70    2.80
  -3  -3 -14    0.50    0.70
   3   3  15    4.40    3.20
  -3  -3 -15   20.00    3.60
   3   3  16    1.60    3.50
  -3  -3 -16   14.10    3.70
   3   3  17    9.90    3.40
  -3  -3 -17    2.90    3.20
   3   3  18   -0.40    2.50
  -3  -3 -18    8.90    2.80
   3   3  19    1.30    4.00
  -3  -3 -19   17.80    4.00
   3   4 -18   10.20    4.20
  -3  -4  18   12.70    4.50
   3   4 -17    0.30    2.60
  -3  -4  17   -1.10    2.70
   3   4 -16   16.70    3.20
  -3  -4  16   11.60    2.80
   3   4 -15   19.80    4.20
  -3  -4  15    4.50    3.50
   3   4 -14   38.30    4.20
  -3  -4  14   32.30    3.20
   3   4 -13   14.10    3.30
  -3  -4  13   12.00    3.40
   3   4 -12    0.20    2.10
  -3  -4  12   12.20    2.80
   3   4 -11   13.00    3.30
  -3  -4  11    3.70    2.80
   3   4 -10  102.20    4.00
  -3  -4  10  108.20    5.50
   3   4  -9   -0.50    1.70
  -3  -4   9    3.70    2.10
   3   4  -8    4.40    1.70
  -3  -4   8    3.90    2.00
   3   4  -7   -1.00    1.20
  -3  -4   7    1.20    1.40
   3   4  -6  163.60    4.30
  -3  -4   6  157.80    4.10
   3   4  -5    0.20    1.30
  -3  -4   5    0.80    0.70
   3   4  -4    8.80    1.00
  -3  -4   4    6.30    0.90
   3   4  -3   20.20    1.30
  -3  -4   3   16.80    0.90
   3   4  -2  107.10    2.80
  -3  -4   2   94.20    2.50
   3   4  -1   33.70    1.20
  -3  -4   1   32.00    1.30
   3   4   0   26.50    1.00
  -3  -4   0   31.80    1.20
   3   4   1   14.10    0.70
  -3  -4  -1   14.30    1.00
   3   4   2   19.50    0.80
  -3  -4  -2   17.30    1.20
   3   4   3   16.00    0.80
  -3  -4  -3   13.10    0.90
   3   4   4   12.50    0.90
  -3  -4  -4    9.10    0.80
   3   4   5   29.50    2.00
  -3  -4  -5   36.20    0.90
   3   4   6    2.60    1.10
  -3  -4  -6    1.20    0.80
   3   4   7   43.00    2.20
  -3  -4  -7   38.90    1.40
   3   4   8   -0.10    1.70
  -3  -4  -8   -0.30    0.50
   3   4   9   -0.50    1.70
  -3  -4  -9    2.60    0.70
   3   4  10   -0.40    2.00
  -3  -4 -10    0.80    1.90
   3   4  11    9.50    3.00
  -3  -4 -11   23.70    3.30
   3   4  12   -5.70    2.00
  -3  -4 -12    1.70    0.90
   3   4  13   11.10    3.10
  -3  -4 -13    3.30    1.00
   3   4  14   -1.50    3.20
  -3  -4 -14    6.20    1.00
   3   4  15   -0.50    3.50
  -3  -4 -15    6.70    3.20
   3   4  16   -1.80    3.20
  -3  -4 -16    7.40    3.40
   3   4  17   13.60    4.00
   3   4  18    6.40    3.90
  -3  -4 -18    6.00    3.60
   3   5 -17    4.40    3.60
  -3  -5  17    3.40    3.60
   3   5 -16    1.00    3.80
  -3  -5  16   19.60    3.90
   3   5 -15   -4.00    2.60
  -3  -5  15    3.10    2.30
  -3  -5  14    1.00    3.30
   3   5 -13   -1.00    2.50
  -3  -5  13    6.70    2.70
   3   5 -12    3.90    3.20
  -3  -5  12    1.50    3.20
   3   5 -11   13.50    3.40
  -3  -5  11    5.30    2.80
   3   5 -10   -2.40    3.10
  -3  -5  10   -0.60    2.60
   3   5  -9   31.60    2.60
  -3  -5   9   12.60    3.00
   3   5  -8   -1.70    1.60
  -3  -5   8    1.40    2.70
   3   5  -7   -2.60    1.20
  -3  -5   7   -2.40    1.70
   3   5  -6   -0.90    0.90
  -3  -5   6    0.20    1.00
   3   5  -5   59.70    1.90
  -3  -5   5   61.20    2.10
   3   5  -4   -0.10    0.70
  -3  -5   4    1.10    0.70
   3   5  -3    1.70    0.70
  -3  -5   3    2.10    0.70
   3   5  -2    2.20    0.70
  -3  -5   2    5.30    0.80
   3   5  -1   34.70    1.30
  -3  -5   1   37.40    1.40
   3   5   0    6.60    0.70
  -3  -5   0    5.90    0.70
   3   5   1   23.60    0.80
  -3  -5  -1   26.10    1.00
   3   5   2   15.50    0.70
  -3  -5  -2   20.50    1.20
   3   5   3   97.20    2.20
  -3  -5  -3   98.60    2.60
   3   5   4   30.50    1.10
  -3  -5  -4   32.10    1.20
   3   5   5   65.10    2.50
  -3  -5  -5   74.00    1.80
   3   5   6   41.30    1.30
  -3  -5  -6   45.80    1.40
   3   5   7   30.40    2.60
  -3  -5  -7   24.80    1.20
   3   5   8   25.60    3.10
  -3  -5  -8   24.60    1.70
   3   5   9   10.80    2.20
  -3  -5  -9   12.90    1.80
   3   5  10   52.80    4.20
  -3  -5 -10   44.90    2.20
   3   5  11   12.30    3.20
  -3  -5 -11   17.20    1.50
   3   5  12    8.30    2.60
  -3  -5 -12    9.20    1.40
   3   5  13    5.50    3.20
  -3  -5 -13    4.80    1.20
   3   5  14   23.60    3.90
  -3  -5 -14   16.20    1.50
   3   5  15    0.80    2.60
  -3  -5 -15    8.20    2.60
  -3  -5 -16    4.20    2.50
   3   5  17   -1.10    2.50
  -3  -5 -17    4.60    2.70
   3   5  18    7.70    4.00
  -3  -5 -18   -1.80    3.60
   3   6 -16   -2.90    2.40
  -3  -6  16    7.80    2.50
   3   6 -15    0.00    3.50
  -3  -6  15    1.10    3.40
   3   6 -14    6.20    2.50
  -3  -6  14    6.80    2.50
   3   6 -13    9.00    3.60
  -3  -6  13   -0.40    3.10
   3   6 -12   -3.10    3.00
  -3  -6  12    3.30    3.20
   3   6 -11    6.50    2.80
  -3  -6  11    8.70    2.50
   3   6 -10    0.60    2.30
  -3  -6  10    0.00    1.80
   3   6  -9   -2.50    1.50
  -3  -6   9    0.70    1.90
   3   6  -8   12.70    3.40
  -3  -6   8   11.30    2.90
   3   6  -7   12.80    1.80
  -3  -6   7    1.20    1.60
   3   6  -6    4.70    1.20
  -3  -6   6    4.00    2.50
   3   6  -5    0.50    1.10
  -3  -6   5   -0.60    1.50
   3   6  -4   42.40    1.70
  -3  -6   4   38.30    2.60
   3   6  -3   -0.10    0.70
  -3  -6   3    2.10    0.80
   3   6  -2   10.20    0.90
  -3  -6   2   15.10    1.10
   3   6  -1    9.20    0.70
  -3  -6   1    9.10    0.90
   3   6   0   15.70    0.80
  -3  -6   0   14.60    0.90
   3   6   1    2.50    0.50
  -3  -6  -1    3.00    0.50
   3   6   2   -0.60    0.70
  -3  -6  -2    3.10    0.50
   3   6   3    1.40    0.80
  -3  -6  -3   -0.70    0.80
   3   6   4   -0.40    0.70
  -3  -6  -4    3.20    0.90
   3   6   5   13.40    1.60
  -3  -6  -5   12.30    0.80
   3   6   6    6.50    2.60
  -3  -6  -6   14.30    1.70
   3   6   7    9.60    0.80
  -3  -6  -7   11.90    0.90
   3   6   8    2.40    0.80
  -3  -6  -8   -1.00    1.40
   3   6   9    1.50    2.80
  -3  -6  -9    0.10    1.30
   3   6  10   12.50    3.10
  -3  -6 -10    3.60    1.40
   3   6  11    3.50    3.20
  -3  -6 -11    2.30    1.30
   3   6  12    8.20    2.70
  -3  -6 -12    4.80    1.20
   3   6  13   -7.40    3.20
  -3  -6 -13    4.40    1.40
   3   6  15    8.60    2.70
  -3  -6 -15    1.20    2.60
   3   6  16   -1.30    2.60
  -3  -6 -16    2.90    2.40
   3   6  17   13.50    3.40
  -3  -6 -17   -3.80    2.50
   3   7 -16   -7.20    2.70
  -3  -7  16    3.90    2.90
   3   7 -15   -8.10    3.40
  -3  -7  15    7.40    3.50
   3   7 -14   -0.90    3.40
  -3  -7  14   13.00    3.70
   3   7 -13    6.00    2.50
  -3  -7  13   -0.30    2.10
   3   7 -12    5.90    3.90
  -3  -7  12   14.10    3.60
   3   7 -11    1.00    3.40
  -3  -7  11    7.70    3.20
   3   7 -10   17.40    3.80
  -3  -7  10    3.30    2.80
   3   7  -9   -4.40    3.00
  -3  -7   9   -2.90    2.60
   3   7  -8   17.60    2.70
  -3  -7   8    8.80    2.20
   3   7  -7    8.10    1.90
  -3  -7   7    8.30    2.70
   3   7  -6    2.50    1.30
  -3  -7   6    5.30    1.80
   3   7  -5   -0.70    1.00
  -3  -7   5   -2.10    1.30
   3   7  -4    6.10    0.90
  -3  -7   4   10.90    2.50
   3   7  -3   -2.20    0.70
  -3  -7   3    1.10    1.10
   3   7  -2    2.00    0.80
  -3  -7   2    1.40    0.80
   3   7  -1    3.10    0.60
  -3  -7   1    0.10    0.90
   3   7   0    4.40    0.70
  -3  -7   0    4.20    1.00
   3   7   1    2.40    0.40
  -3  -7  -1    1.90    0.60
   3   7   2    2.60    1.10
  -3  -7  -2    0.80    0.60
   3   7   3    0.80    0.90
  -3  -7  -3    4.10    1.80
   3   7   4    6.60    1.00
  -3  -7  -4    5.20    1.50
   3   7   5    1.60    1.50
  -3  -7  -5    3.20    1.70
   3   7   6    0.20    1.50
  -3  -7  -6    2.00    0.70
   3   7   7    0.30    1.30
  -3  -7  -7    1.00    0.70
   3   7   8    1.00    0.70
  -3  -7  -8    0.00    0.80
   3   7   9   15.30    1.20
  -3  -7  -9   22.20    2.00
   3   7  10    4.30    1.10
  -3  -7 -10    8.50    1.60
   3   7  11    0.30    1.20
  -3  -7 -11    1.90    1.50
   3   7  12    4.30    1.30
  -3  -7 -12    1.80    1.40
  -3  -7 -13    5.20    1.40
   3   7  14    5.80    2.90
  -3  -7 -14    8.00    2.60
   3   7  15    5.20    2.70
  -3  -7 -15   -4.60    2.20
   3   7  16    1.60    3.70
  -3  -7 -16    3.90    3.50
   3   7  17   -7.00    3.70
  -3  -7 -17    8.30    3.50
   3   8 -15    7.10    4.20
  -3  -8  15   -1.80    3.10
   3   8 -14   13.00    3.80
  -3  -8  14   -1.20    3.10
   3   8 -13    6.80    2.80
  -3  -8  13    5.70    2.30
   3   8 -12   11.50    2.60
  -3  -8  12   -1.70    2.20
   3   8 -11  -11.60    3.50
  -3  -8  11   -0.90    2.80
   3   8 -10   11.90    3.40
  -3  -8  10   -7.90    2.80
   3   8  -9    3.90    2.40
  -3  -8   9   -0.90    1.70
   3   8  -8    0.70    1.60
  -3  -8   8    2.70    1.90
   3   8  -7    0.50    1.60
   3   8  -6    5.60    2.00
  -3  -8   6    2.10    1.70
   3   8  -5    2.60    1.10
  -3  -8   5   -6.20    2.40
   3   8  -4    2.00    1.10
  -3  -8   4    0.50    0.80
   3   8  -3    1.50    1.40
  -3  -8   3    2.80    1.30
   3   8  -2    5.80    1.10
  -3  -8   2    8.70    2.60
   3   8  -1    6.30    1.30
  -3  -8   1    1.40    1.00
   3   8   0    1.10    0.40
  -3  -8   0    1.50    0.70
   3   8   1    3.80    1.30
  -3  -8  -1    5.00    0.80
   3   8   2    6.90    1.30
  -3  -8  -2    0.20    0.80
   3   8   3   57.30    2.40
  -3  -8  -3   64.70    3.20
   3   8   4    1.60    1.20
  -3  -8  -4   -0.80    1.40
   3   8   5    0.50    1.10
  -3  -8  -5    2.00    1.30
   3   8   6    7.40    1.50
  -3  -8  -6   12.00    0.80
   3   8   7   47.50    3.80
  -3  -8  -7   44.00    2.50
   3   8   8    1.10    1.40
  -3  -8  -8    1.30    1.70
   3   8   9    0.30    0.60
  -3  -8  -9    0.40    0.70
   3   8  10    4.70    1.00
  -3  -8 -10    4.60    1.00
   3   8  11    3.30    3.10
  -3  -8 -11    7.10    1.80
   3   8  12   -4.90    2.50
  -3  -8 -12    6.70    2.30
   3   8  13   -0.60    3.40
  -3  -8 -13    3.20    1.30
   3   8  14    0.70    3.10
  -3  -8 -14   -6.10    2.20
   3   8  15    4.20    3.50
   3   8  16   20.20    5.10
  -3  -8 -16    0.20    3.40
   3   9 -14   -5.00    2.50
  -3  -9  14   -3.30    2.10
   3   9 -13   25.80    3.70
  -3  -9  13   14.40    2.50
   3   9 -12   18.90    4.00
  -3  -9  12   -4.60    2.90
   3   9 -11   15.20    3.90
  -3  -9  11    8.70    3.50
   3   9 -10   -0.30    3.50
  -3  -9  10   -0.50    2.70
   3   9  -9   10.00    3.70
  -3  -9   9   14.30    3.10
   3   9  -8    0.70    3.10
  -3  -9   8    3.50    2.90
   3   9  -7    7.90    1.70
  -3  -9   7   -0.80    1.70
   3   9  -6    1.30    1.50
  -3  -9   6   -0.30    2.40
   3   9  -5   28.30    3.00
  -3  -9   5   24.40    3.10
   3   9  -4    1.10    1.10
  -3  -9   4    3.10    2.00
   3   9  -3    3.10    1.00
  -3  -9   3   -0.30    1.20
   3   9  -2   -1.20    1.30
  -3  -9   2   -0.50    0.80
   3   9  -1   43.30    2.30
  -3  -9   1   37.40    1.50
   3   9   0    3.00    1.30
  -3  -9   0    3.30    0.90
   3   9   1   16.50    1.70
  -3  -9  -1   16.90    1.20
   3   9   2    2.60    1.20
  -3  -9  -2    4.50    0.80
   3   9   3    7.70    1.40
  -3  -9  -3    7.10    2.20
   3   9   4    0.80    1.20
  -3  -9  -4    8.50    3.20
   3   9   5    9.50    1.40
  -3  -9  -5    2.40    1.90
   3   9   6    5.90    1.20
  -3  -9  -6    4.70    2.10
   3   9   7   -1.90    1.20
  -3  -9  -7    1.20    0.50
   3   9   8    6.80    1.40
  -3  -9  -8    9.60    1.70
   3   9   9    0.50    1.40
  -3  -9  -9    4.30    1.50
   3   9  10    7.60    1.70
  -3  -9 -10   11.80    2.10
   3   9  11    7.00    1.60
  -3  -9 -11   -0.20    1.40
   3   9  12   -3.20    2.60
  -3  -9 -12    7.90    1.80
  -3  -9 -13    1.80    1.70
   3   9  14   17.30    3.20
  -3  -9 -14   11.20    3.30
   3   9  15    2.60    3.70
  -3  -9 -15    4.70    3.50
   3  10 -13   -2.00    3.50
  -3 -10  13   -2.70    3.10
   3  10 -12   12.30    3.80
  -3 -10  12   21.80    3.80
   3  10 -11    0.30    2.40
  -3 -10  11   12.20    2.70
   3  10 -10   14.00    3.10
  -3 -10  10   11.50    2.50
   3  10  -9    0.70    2.30
  -3 -10   9    0.10    2.20
   3  10  -8   10.30    3.00
  -3 -10   8   12.30    3.00
   3  10  -7   12.60    3.20
  -3 -10   7   11.10    2.80
   3  10  -6   21.00    2.30
  -3 -10   6   27.20    3.40
   3  10  -5    5.40    1.50
  -3 -10   5    0.80    1.90
   3  10  -4    4.70    1.40
  -3 -10   4   13.70    2.60
   3  10  -3    1.30    1.00
  -3 -10   3    2.70    1.20
   3  10  -2    5.40    1.50
  -3 -10   2    1.30    0.60
   3  10  -1    0.00    1.10
  -3 -10   1    2.50    0.70
   3  10   0   10.80    1.40
  -3 -10   0    6.20    1.00
   3  10   1   15.20    1.60
  -3 -10  -1    7.20    1.00
   3  10   2    2.30    1.30
  -3 -10  -2    4.70    2.20
   3  10   3    5.60    1.30
  -3 -10  -3    4.60    2.30
   3  10   4   14.00    1.30
  -3 -10  -4   14.70    2.10
   3  10   5   11.10    1.60
  -3 -10  -5   19.30    2.50
   3  10   6    3.20    1.30
  -3 -10  -6    5.00    2.10
   3  10   7    0.70    1.10
  -3 -10  -7    5.60    2.10
   3  10   8    3.40    2.80
  -3 -10  -8    2.00    1.40
   3  10   9    9.80    2.80
  -3 -10  -9    8.50    1.70
   3  10  10    8.00    2.80
  -3 -10 -10    4.40    1.50
   3  10  11   15.50    4.30
  -3 -10 -11    1.50    2.00
   3  10  12    1.20    2.50
  -3 -10 -12   -1.50    1.50
   3  10  13    4.20    2.90
  -3 -10 -13   -0.20    2.20
   3  11 -11   -3.00    3.50
  -3 -11  11    4.10    3.20
   3  11 -10   -1.60    3.50
  -3 -11  10    2.90    3.00
   3  11  -9    1.50    3.50
  -3 -11   9    6.10    3.00
   3  11  -8    4.30    3.20
  -3 -11   8    2.60    2.90
   3  11  -7   11.20    3.30
  -3 -11   7    4.50    3.10
   3  11  -6   -2.70    3.00
  -3 -11   6    1.00    2.70
   3  11  -5    9.00    3.60
  -3 -11   5    0.20    2.10
   3  11  -4    3.10    1.70
  -3 -11   4    6.50    2.30
   3  11  -3    8.50    1.30
  -3 -11   3    7.00    2.10
   3  11  -2   -0.60    1.10
  -3 -11   2    2.10    2.10
   3  11  -1    1.40    1.10
  -3 -11   1   -0.20    1.90
   3  11   0   10.80    1.30
  -3 -11   0   16.80    2.30
   3  11   1    3.00    1.00
  -3 -11  -1    3.70    1.70
   3  11   2    7.70    2.80
  -3 -11  -2    2.10    2.00
   3  11   3   -3.50    2.30
  -3 -11  -3    2.60    1.70
   3  11   4    8.10    4.10
  -3 -11  -4    0.40    1.80
   3  11   5    1.70    2.50
  -3 -11  -5    9.50    1.80
   3  11   6    6.40    3.40
  -3 -11  -6    2.30    2.20
   3  11   7    1.80    2.70
  -3 -11  -7   -1.60    1.70
   3  11   8    7.00    2.80
  -3 -11  -8    0.10    1.50
   3  11   9    9.10    3.10
  -3 -11  -9    1.00    2.80
   3  11  10    4.30    2.40
  -3 -11 -10    9.90    1.70
   3  11  11    0.50    2.60
  -3 -11 -11   -0.40    2.10
   3  12  -9   -7.30    3.70
   3  12  -7    9.30    3.60
   3  12  -6   -0.70    3.50
  -3 -12   6   -3.90    2.60
   3  12  -5    1.80    3.30
  -3 -12   5    6.00    3.10
   3  12  -4   15.50    3.50
  -3 -12   4   11.00    3.30
   3  12  -3    2.10    3.40
  -3 -12   3    2.60    2.70
   3  12  -2    1.60    3.10
  -3 -12   2    3.70    2.70
   3  12  -1   -2.30    3.00
  -3 -12   1    2.40    2.20
   3  12   0   -0.50    3.40
  -3 -12   0    5.80    2.30
   3  12   1    7.70    2.60
  -3 -12  -1    3.10    1.80
   3  12   2   10.30    2.90
  -3 -12  -2    4.80    1.90
   3  12   3   -6.90    3.30
  -3 -12  -3   12.20    4.10
  -3 -12  -4    1.60    1.80
   3  12   5    5.30    3.80
  -3 -12  -5    2.00    1.90
   3  12   6    3.70    2.80
  -3 -12  -6    4.10    1.80
   3  12   7    7.50    2.60
  -3 -12  -7    2.90    2.00
   3  12   8   -2.80    3.90
  -3 -12  -8    2.90    2.40
   3  12   9   -5.30    3.90
  -3 -12  -9   -3.60    2.30
   3  13  -6    6.40    2.70
   3  13  -5    1.90    2.60
  -3 -13   5    6.10    2.20
   3  13  -4   -6.00    2.70
  -3 -13   4    3.50    2.10
   3  13  -3   -6.30    3.40
  -3 -13   3    1.90    2.70
  -3 -13   2   32.30    4.40
   3  13  -1   -3.80    3.50
  -3 -13   1    0.80    2.00
   3  13   0    9.20    3.80
  -3 -13   0   -1.90    2.00
   3  13   1   10.10    2.90
  -3 -13  -1    5.30    1.90
   3  13   2   -8.70    3.60
  -3 -13  -2    7.80    2.10
   3  13   3    2.20    2.80
  -3 -13  -3   -2.80    2.30
   3  13   4    5.10    3.90
  -3 -13  -4   14.30    4.30
  -3 -13  -5    3.00    1.80
   3  13   6   -1.10    3.80
  -3 -13  -6    5.50    3.10
   4 -10  -5  430.30   21.60
  -4  10   5  395.90   14.00
   4 -10  -4  363.80   19.60
  -4  10   4  384.10   18.40
   4 -10  -3  108.90    5.60
  -4  10   3  128.20    9.30
   4 -10  -2  380.10   13.80
  -4  10   2  384.80   18.50
   4 -10  -1   24.30    3.80
  -4  10   1   30.70    3.80
   4 -10   0  581.00   19.60
  -4  10   0  619.60   27.30
   4 -10   1   17.50    3.40
   4 -10   2  403.20   14.80
  -4  10  -2  426.80   21.70
   4 -10   3   90.50   10.50
   4 -10   4  258.80   10.20
   4 -10   5  181.40   15.90
   4 -10   6  114.40    8.50
   4  -9  -8    9.70    4.50
  -4   9   8    8.50    2.10
   4  -9  -7  580.60   28.40
  -4   9   7  574.90   19.60
   4  -9  -6   16.30    4.60
  -4   9   6   12.70    2.10
   4  -9  -5  968.80   44.50
  -4   9   5  929.70   29.20
   4  -9  -4    8.40    3.70
  -4   9   4   19.90    3.30
   4  -9  -3 1132.60   54.60
  -4   9   3 1168.10   36.90
   4  -9  -2   32.20    3.20
  -4   9   2   38.70    5.90
   4  -9  -1 1449.80   36.40
  -4   9   1 1376.90   48.80
   4  -9   0   47.00    5.70
  -4   9   0   32.60    5.50
   4  -9   1 1692.40   59.50
  -4   9  -1 1541.40   55.50
   4  -9   3 1379.90   34.70
  -4   9  -3 1353.60   46.10
   4  -9   4   67.00    7.20
  -4   9  -4   91.30    9.60
   4  -9   5 1181.20   38.50
   4  -9   6   46.70    6.20
   4  -9   7 1005.10   45.00
   4  -9   8   39.80    5.40
  -4   9  -8   29.10    3.70
   4  -9   9  632.50   30.30
  -4   9  -9  621.40   29.70
   4  -9  10   18.30    3.60
  -4   9 -10   19.90    3.10
   4  -8 -10  319.60   17.60
  -4   8  10  264.40   10.30
   4  -8  -9  329.60   17.50
  -4   8   9  339.70   12.50
   4  -8  -8  248.80   14.20
  -4   8   8  226.40    8.60
   4  -8  -7  175.30   10.10
  -4   8   7  179.10    6.90
   4  -8  -6  365.00   15.70
  -4   8   6  305.90    9.00
   4  -8  -5  128.10    7.40
  -4   8   5  114.20    4.50
   4  -8  -4  497.40   20.20
  -4   8   4  447.20   12.10
   4  -8  -3  167.30    9.00
  -4   8   3  150.60    5.40
   4  -8  -2  481.30   19.90
  -4   8   2  422.80   11.80
   4  -8  -1   54.00    4.30
  -4   8   1   35.70    2.90
   4  -8   0  310.70   12.90
  -4   8   0  292.50   11.60
   4  -8   1    5.20    2.50
  -4   8  -1    9.60    2.00
   4  -8   2  419.80   11.60
  -4   8  -2  381.30   14.90
   4  -8   3  229.70    7.80
  -4   8  -3  248.20   11.10
   4  -8   4  639.40   16.70
  -4   8  -4  649.20   23.70
   4  -8   5  143.10    6.20
  -4   8  -5  190.00    8.50
   4  -8   6  575.20   23.10
  -4   8  -6  619.20   15.90
   4  -8   7  247.30   12.20
  -4   8  -7  291.50    8.40
   4  -8   8  328.00   16.30
  -4   8  -8  344.30   17.70
   4  -8   9  420.40   20.90
  -4   8  -9  379.10   17.60
   4  -8  10  187.40   11.40
  -4   8 -10  232.70   12.20
  -4   8 -11  361.30   17.60
  -4   8 -12  255.90   13.70
  -4   7  12   33.70    3.40
   4  -7 -11  497.10   18.50
  -4   7  11  521.10   18.40
   4  -7 -10  144.60    6.70
  -4   7  10  150.20    6.50
   4  -7  -9  391.50   14.20
  -4   7   9  379.40   13.40
   4  -7  -8  138.40    5.10
  -4   7   8  141.40    5.10
   4  -7  -7  168.80    7.80
  -4   7   7  179.00    6.10
   4  -7  -6  286.00    8.60
  -4   7   6  260.00    7.90
   4  -7  -5  367.80   10.60
  -4   7   5  376.30   10.10
   4  -7  -4  171.70    5.50
  -4   7   4  170.10    5.50
   4  -7  -3  236.60    7.20
  -4   7   3  238.70    6.90
   4  -7  -2   86.80    3.50
  -4   7   2   88.50    3.40
   4  -7  -1   43.10    4.00
  -4   7   1   40.20    2.20
   4  -7   0   23.90    2.10
  -4   7   0   31.40    4.50
   4  -7   1   20.90    1.50
  -4   7  -1   27.40    1.90
   4  -7   2    3.20    0.70
  -4   7  -2   13.90    3.30
   4  -7   3    6.50    0.80
  -4   7  -3    9.90    1.30
   4  -7   4   40.40    1.70
  -4   7  -4   37.40    2.60
   4  -7   5   71.10    3.40
  -4   7  -5   66.10    2.40
   4  -7   6  145.50    5.80
  -4   7  -6  183.90    5.40
   4  -7   8  243.40   11.60
  -4   7  -8  264.80    7.50
   4  -7   9  107.00    6.10
  -4   7  -9   89.90    3.10
   4  -7  10  239.40   11.30
  -4   7 -10  224.00    6.90
  -4   7 -11  361.80   12.50
  -4   7 -12  151.10    6.10
  -4   7 -13  660.00   31.00
   4  -6 -13    2.80    3.30
  -4   6  13    5.90    2.20
   4  -6 -12  528.50   26.30
  -4   6  12  519.70   17.80
  -4   6  11   10.00    2.60
   4  -6 -10  213.30    9.50
  -4   6  10  207.60    6.60
   4  -6  -9   12.80    2.80
  -4   6   9   15.30    2.30
   4  -6  -8   93.70    5.30
  -4   6   8  101.70    4.10
   4  -6  -7   25.10    2.70
  -4   6   7   28.10    2.40
   4  -6  -6    4.40    2.00
  -4   6   6    1.20    1.50
   4  -6  -5   17.30    1.30
  -4   6   5   18.10    2.00
   4  -6  -4   63.60    2.40
  -4   6   4   68.50    2.50
   4  -6  -3    2.80    0.80
  -4   6   3    7.20    1.80
   4  -6  -2   12.60    0.90
  -4   6   2    9.20    1.00
   4  -6  -1   55.50    1.90
  -4   6   1   63.50    2.10
   4  -6   0   40.90    2.40
  -4   6   0   47.40    2.30
   4  -6   1    5.10    0.40
  -4   6  -1    8.80    1.50
   4  -6   2    4.40    0.50
  -4   6  -2    7.40    1.00
   4  -6   3    8.80    0.60
  -4   6  -3    8.90    0.80
   4  -6   4  481.40    9.10
  -4   6  -4  476.50   12.00
   4  -6   5   25.40    1.00
  -4   6  -5   32.00    1.10
   4  -6   6  252.80    5.50
  -4   6  -6  272.30    6.00
   4  -6   7   61.00    3.20
  -4   6  -7   69.10    3.50
   4  -6   8  347.30   13.60
  -4   6  -8  352.30    9.40
   4  -6   9   74.60    6.50
  -4   6  -9  102.80    4.40
   4  -6  10  229.70    9.90
  -4   6 -10  259.00    7.60
  -4   6 -11  124.00    4.50
  -4   6 -12  342.50    9.50
  -4   6 -13   82.40    4.70
  -4   6 -14  239.50   12.60
  -4   6 -15   33.10    5.00
   4  -5 -14   79.40    6.70
  -4   5  14   85.90    5.20
   4  -5 -13   19.40    3.70
  -4   5  13   29.20    3.00
   4  -5 -12  106.20    6.30
  -4   5  12   97.50    4.50
   4  -5 -11   84.70    6.00
  -4   5  11   82.30    4.20
   4  -5 -10  459.00   19.00
  -4   5  10  451.20   12.40
   4  -5  -9  299.30   13.10
  -4   5   9  252.40    7.90
   4  -5  -8  253.90   10.60
  -4   5   8  245.00    7.50
   4  -5  -7  466.60   18.00
  -4   5   7  450.40   10.20
   4  -5  -6   52.20    3.40
  -4   5   6   44.60    1.70
   4  -5  -5  476.50   17.80
  -4   5   5  472.20    8.70
   4  -5  -4   40.90    2.70
  -4   5   4   33.50    1.80
   4  -5  -3  409.10   10.50
  -4   5   3  432.90    9.20
   4  -5  -2   74.80    2.20
  -4   5   2   76.40    3.50
   4  -5  -1  458.70    7.40
  -4   5   1  445.60    9.30
   4  -5   0   18.10    1.50
  -4   5   0   73.90   15.10
   4  -5   1  413.40    7.70
  -4   5  -1  416.60   10.80
   4  -5   2  321.40    8.70
  -4   5  -2  268.60   12.80
   4  -5   3   74.90    1.90
  -4   5  -3   80.10    2.20
   4  -5   4  175.10    4.80
  -4   5  -4  237.90   16.30
   4  -5   5   32.80    1.20
  -4   5  -5   43.30    2.20
   4  -5   6  128.60    5.60
  -4   5  -6  134.50    4.50
   4  -5   7   81.20    3.30
  -4   5  -7   86.90    3.10
   4  -5   8  129.90    5.00
  -4   5  -8  120.00    3.70
   4  -5   9   96.70    3.50
  -4   5  -9   99.60    3.40
  -4   5 -10  270.30    7.40
  -4   5 -11   81.50    3.30
  -4   5 -12  149.00    6.80
  -4   5 -13   69.60    3.90
  -4   5 -14   55.60    3.70
  -4   5 -15   99.00    6.60
  -4   5 -16   30.40    3.20
   4  -4 -15   46.20    5.10
  -4   4  15   39.30    3.40
   4  -4 -14    1.30    2.10
  -4   4  14    8.50    3.10
   4  -4 -13   62.10    5.50
  -4   4  13   50.70    3.40
   4  -4 -12   10.40    3.20
  -4   4  12    8.00    2.50
   4  -4 -11   83.50    5.50
  -4   4  11   73.90    3.80
   4  -4 -10   36.10    3.90
  -4   4  10   16.40    2.30
   4  -4  -9  103.40    5.20
  -4   4   9  118.20    3.40
   4  -4  -8  654.80   23.20
  -4   4   8  617.00   11.50
   4  -4  -7  100.00    5.30
  -4   4   7   94.90    4.10
   4  -4  -6  764.20   27.20
  -4   4   6  772.10   15.60
  -4   4   5   27.40    1.20
   4  -4  -4 1240.90   29.60
  -4   4   4 1211.00   20.60
   4  -4  -3  139.10    4.30
  -4   4   3  133.60    4.10
   4  -4  -2 2701.60   44.30
  -4   4   2 2788.70   53.00
   4  -4  -1   90.80    3.30
  -4   4   1  103.40    4.40
   4  -4   0 5738.00   81.50
  -4   4   0 5834.60  131.60
   4  -4   1  133.60    9.70
  -4   4  -1  115.30   11.00
   4  -4   2 6421.20  100.90
  -4   4  -2 6350.20  114.60
   4  -4   3   24.70    0.90
   4  -4   4 3253.70   76.20
  -4   4  -4 3283.20  106.80
   4  -4   5  373.80   11.50
  -4   4  -5  416.40   14.20
   4  -4   6 2622.70   42.80
  -4   4  -6 2633.50   48.70
   4  -4   7  141.60    4.90
  -4   4  -7  165.90    4.70
   4  -4   8 1866.00   35.30
  -4   4  -8 1977.40   37.60
   4  -4   9  328.60    7.40
  -4   4  -9  356.10    9.40
   4  -4  10  658.50   24.80
  -4   4 -10  675.30   23.30
   4  -4  11  152.40    7.80
  -4   4 -11  170.60    7.50
  -4   4 -12   33.30    2.50
  -4   4 -13  105.00    5.80
  -4   4 -14   13.80    2.30
  -4   4 -15   37.70    3.40
  -4   4 -16   10.70    2.50
  -4   4 -17   12.60    2.60
   4  -3 -16   28.70    4.00
  -4   3  16   37.90    4.30
   4  -3 -15   14.30    4.40
  -4   3  15   29.00    4.50
   4  -3 -14   59.20    5.70
  -4   3  14   65.80    5.90
   4  -3 -13   88.50    5.80
  -4   3  13   69.70    5.00
   4  -3 -12   17.90    3.50
  -4   3  12   20.30    3.70
   4  -3 -11  155.50    7.90
  -4   3  11  142.30    7.40
   4  -3 -10  339.30   13.50
  -4   3  10  353.40    9.90
   4  -3  -9 1056.30   37.90
  -4   3   9  983.20   20.60
   4  -3  -8   30.80    3.20
  -4   3   8   31.80    1.40
   4  -3  -7 2618.60   86.50
  -4   3   7 2532.30   41.70
   4  -3  -6   83.00    2.90
  -4   3   6   71.20    2.40
   4  -3  -5 2608.50   59.80
  -4   3   5 2519.40   41.10
   4  -3  -4   14.60    1.20
  -4   3   4   14.90    1.00
   4  -3  -3 3779.50   70.30
  -4   3   3 3739.60   60.20
   4  -3  -2  237.60    5.30
  -4   3   2  250.20    5.60
   4  -3  -1 4464.70   63.70
  -4   3   1 4644.10  104.90
   4  -3   0   75.90    2.10
  -4   3   0   74.50    3.40
   4  -3   1 5973.20   77.30
  -4   3  -1 6046.90  109.70
   4  -3   2  291.10   17.20
  -4   3  -2  273.20   16.50
   4  -3   3 3004.10   70.30
  -4   3  -3 2937.30   97.50
   4  -3   4  272.20   16.40
   4  -3   5 1987.20   46.70
  -4   3  -5 1986.00   66.90
   4  -3   6  243.60    8.40
  -4   3  -6  257.70    6.90
   4  -3   7 1497.50   28.30
  -4   3  -7 1530.70   29.00
   4  -3   8  119.00    3.00
  -4   3  -8  136.40    4.40
   4  -3   9 1271.70   25.50
  -4   3  -9 1363.60   45.40
   4  -3  10  374.30   14.70
  -4   3 -10  374.90    9.40
   4  -3  11  253.00   10.40
  -4   3 -11  250.10    5.90
   4  -3  12  220.40    9.20
  -4   3 -12  201.70    8.10
   4  -3  13  198.60    6.00
  -4   3 -13  209.90    9.90
  -4   3 -14   40.30    3.10
  -4   3 -15   99.30    5.10
  -4   3 -16    4.70    2.20
  -4   3 -17   80.20    5.70
   4  -2 -17   11.40    4.20
  -4   2  17   31.60    4.90
   4  -2 -16  257.70   15.70
  -4   2  16  235.30   13.20
   4  -2 -15    8.30    4.10
  -4   2  15    2.40    2.00
   4  -2 -14  224.60   11.50
  -4   2  14  224.20   10.70
   4  -2 -13   41.00    4.40
  -4   2  13   51.30    4.70
   4  -2 -12  543.50   21.70
  -4   2  12  502.70   19.00
   4  -2 -11  169.20    8.20
  -4   2  11  156.80    8.10
   4  -2 -10  246.80   10.60
  -4   2  10  234.50    9.70
   4  -2  -9  680.70   25.30
  -4   2   9  667.80   24.20
   4  -2  -8  719.30   18.50
  -4   2   8  695.80   17.50
   4  -2  -7   32.50    2.00
  -4   2   7   23.00    1.20
   4  -2  -6  487.70   12.70
  -4   2   6  450.10    8.10
   4  -2  -5   11.10    1.10
  -4   2   5    8.80    0.90
   4  -2  -4 1220.70   23.60
  -4   2   4 1237.60   20.90
   4  -2  -3   36.50    1.70
  -4   2   3   39.30    1.50
   4  -2  -2 1080.60   20.80
  -4   2   2 1099.60   18.40
   4  -2  -1  237.60    5.30
  -4   2   1  238.30    6.30
   4  -2   0 1993.80   29.00
  -4   2   0 2075.20   38.70
   4  -2   1   52.30    1.50
  -4   2  -1   48.80    1.40
   4  -2   2  901.00   18.20
  -4   2  -2  984.10   34.10
   4  -2   3  339.70   12.50
   4  -2   4 2181.40   42.30
  -4   2  -4 2176.70   72.10
   4  -2   5  168.00   15.50
  -4   2  -5  214.90    8.30
   4  -2   6  589.20   10.20
  -4   2  -6  615.80   12.10
   4  -2   7  154.40    8.10
  -4   2  -7  183.90    7.70
   4  -2   8 1162.90   22.50
  -4   2  -8 1164.70   38.90
   4  -2   9  215.30    6.20
  -4   2  -9  246.00    6.60
   4  -2  10  455.00   17.00
  -4   2 -10  419.60   10.60
   4  -2  11  389.40   14.90
  -4   2 -11  384.80    8.30
   4  -2  12  613.10   22.70
  -4   2 -12  612.60   21.50
   4  -2  13  201.00    8.70
  -4   2 -13  166.70    8.80
   4  -2  14  431.70   16.90
  -4   2 -14  452.00   17.00
  -4   2 -15   89.30    6.30
  -4   2 -16  191.10   10.50
  -4   2 -17   72.90    6.20
  -4   2 -18  236.80   13.20
   4  -1 -17  516.00   26.80
  -4   1  17  448.80   25.10
   4  -1 -16    4.50    4.00
  -4   1  16    0.30    4.30
   4  -1 -15  692.00   26.60
  -4   1  15  650.40   25.80
   4  -1 -14   -5.60    2.80
  -4   1  14   -5.90    3.00
   4  -1 -13  918.10   33.50
  -4   1  13  885.10   31.60
   4  -1 -12    0.90    2.60
  -4   1  12   -1.20    2.50
   4  -1 -11 1520.40   52.80
  -4   1  11 1596.50   55.50
   4  -1 -10   17.80    3.50
  -4   1  10   14.60    3.70
   4  -1  -9  480.30   12.90
  -4   1   9  538.00   21.10
   4  -1  -8   14.00    1.90
  -4   1   8   13.00    1.20
   4  -1  -7  603.00   15.90
  -4   1   7  554.20   11.60
   4  -1  -6  602.40   15.40
  -4   1   6  544.70   11.30
   4  -1  -5  762.00   16.00
  -4   1   5  775.40   16.00
   4  -1  -4   35.90    1.60
  -4   1   4   36.90    1.40
   4  -1  -3 1048.80   20.70
  -4   1   3 1055.60   17.90
   4  -1  -2   35.20    1.40
  -4   1   2   33.80    1.30
   4  -1  -1  323.90    5.90
  -4   1   1  328.50    6.80
   4  -1   0   15.10    0.90
  -4   1   0   18.10    1.20
   4  -1   1   31.80    0.80
  -4   1  -1   32.60    0.90
   4  -1   2   39.20    2.60
  -4   1  -2   52.80    5.50
   4  -1   3 1248.40   43.80
  -4   1  -3 1325.10   31.60
   4  -1   4    3.00    0.30
  -4   1  -4    3.80    0.30
   4  -1   5 1649.90   24.20
  -4   1  -5 1629.90   30.40
   4  -1   6  276.00    5.60
  -4   1  -6  265.00    7.30
   4  -1   7  738.10   12.90
  -4   1  -7  769.30   19.00
   4  -1   8  223.10   10.00
  -4   1  -8  239.20    9.50
   4  -1   9  642.20   15.80
  -4   1  -9  637.00   15.70
   4  -1  10  148.20    8.60
  -4   1 -10  137.60    4.50
   4  -1  11  961.10   33.00
  -4   1 -11  935.70   22.60
   4  -1  12  208.90    8.50
  -4   1 -12  184.20    5.00
   4  -1  13 1374.80   48.00
  -4   1 -13 1371.70   47.20
   4  -1  14  133.00    7.60
  -4   1 -14  102.80    9.30
   4  -1  15  639.10   24.40
  -4   1 -15  666.50   25.30
  -4   1 -16   44.10    7.40
  -4   1 -17  528.90   24.70
  -4   1 -18   22.90    5.50
   4   0 -17    6.60    3.20
  -4   0  17   -1.20    2.80
   4   0 -16  227.50   14.60
  -4   0  16  196.20   12.70
   4   0 -15   10.60    4.10
  -4   0  15   15.40    4.50
   4   0 -14  533.00   21.80
  -4   0  14  488.10   19.90
   4   0 -13    3.50    2.90
  -4   0  13   -1.80    2.70
   4   0 -12  839.70   31.20
  -4   0  12  854.40   31.30
   4   0 -11  238.90   10.80
  -4   0  11  229.90   10.80
   4   0 -10 1145.00   29.60
  -4   0  10 1160.80   40.70
   4   0  -9  193.50    6.20
  -4   0   9  184.90    8.40
   4   0  -8  306.80    8.90
  -4   0   8  264.40    6.30
   4   0  -7  246.80    7.30
  -4   0   7  223.70    5.20
   4   0  -6  449.10    9.90
  -4   0   6  433.10    9.20
   4   0  -5  179.80    4.30
  -4   0   5  181.90    4.20
   4   0  -4  838.80   16.90
  -4   0   4  800.00   16.00
   4   0  -3  343.20    7.40
  -4   0   3  345.60    6.50
   4   0  -2   22.50    1.10
  -4   0   2   23.40    1.00
   4   0  -1  127.70    3.40
  -4   0   1  123.00    3.10
   4   0   0  592.00   10.10
  -4   0   0  605.00   11.90
   4   0   1    3.00    0.60
  -4   0  -1    5.80    0.60
   4   0   2  383.10    6.20
  -4   0  -2  393.30    7.90
   4   0   3  872.00   16.00
  -4   0  -3  804.90   25.80
   4   0   4   54.60    5.00
  -4   0  -4   76.00    4.30
   4   0   5  143.90    4.80
  -4   0  -5  162.60    6.60
   4   0   6  325.40    8.30
  -4   0  -6  347.60   10.90
   4   0   7  621.30   14.70
  -4   0  -7  609.00   13.70
   4   0   8  124.00    7.40
  -4   0  -8  152.40    4.60
   4   0   9  462.10   13.00
  -4   0  -9  449.40   11.80
   4   0  10  727.30   26.30
  -4   0 -10  678.90   17.50
   4   0  11  298.90   11.70
  -4   0 -11  297.00    8.10
   4   0  12 1220.50   41.80
  -4   0 -12 1187.50   28.40
   4   0  13   69.30    4.20
  -4   0 -13   68.80    3.10
   4   0  14  739.90   27.80
  -4   0 -14  813.70   28.50
   4   0  16  507.70   20.40
  -4   0 -16  496.70   19.50
  -4   0 -17    5.30    3.70
  -4   0 -18  234.80   13.00
   4   1 -17   28.00    3.80
  -4  -1  17   22.30    3.80
   4   1 -16   63.00    7.10
  -4  -1  16   63.00    5.60
   4   1 -15  155.20    9.30
  -4  -1  15  153.20    9.10
   4   1 -14   85.20    6.20
  -4  -1  14   65.70    5.50
   4   1 -13   66.10    5.80
  -4  -1  13   78.20    6.00
   4   1 -12  234.00   10.70
  -4  -1  12  252.60   11.40
   4   1 -11  152.00    7.90
  -4  -1  11  160.50    7.80
   4   1 -10  761.70   20.90
  -4  -1  10  782.30   28.80
   4   1  -9  189.60    5.90
  -4  -1   9  153.40    7.40
   4   1  -8  832.20   21.00
  -4  -1   8  837.60   29.20
   4   1  -7   24.00    1.90
  -4  -1   7   13.20    1.00
   4   1  -6   18.80    1.30
  -4  -1   6   19.80    1.40
   4   1  -5  509.20   10.90
  -4  -1   5  491.70   10.40
   4   1  -4  286.40    6.80
  -4  -1   4  258.70    6.10
   4   1  -3  505.20   10.40
  -4  -1   3  489.90    9.90
   4   1  -2  498.60   11.10
  -4  -1   2  495.80   10.40
   4   1  -1  700.80   14.00
  -4  -1   1  720.20   12.40
   4   1   0  108.70    4.10
  -4  -1   0  104.30    3.10
   4   1   1 1663.30   24.60
  -4  -1  -1 1708.80   31.90
   4   1   2  501.40    8.70
  -4  -1  -2  521.70   13.70
   4   1   3  963.10   16.40
  -4  -1  -3 1023.30   19.90
   4   1   4  562.60   10.80
  -4  -1  -4  575.70   12.10
   4   1   5 2188.40   31.50
  -4  -1  -5 2202.60   41.20
   4   1   6   17.30    2.40
  -4  -1  -6   20.40    2.50
   4   1   7  748.60   15.70
  -4  -1  -7  781.40   15.80
   4   1   8  687.60   30.20
  -4  -1  -8  642.00   14.30
   4   1   9  528.60   18.80
  -4  -1  -9  495.30   10.50
   4   1  10  672.50   24.10
  -4  -1 -10  608.80   15.40
   4   1  11  292.30   11.70
  -4  -1 -11  263.70    7.40
   4   1  12  541.40   20.40
  -4  -1 -12  470.10   12.60
   4   1  13   75.30    4.20
  -4  -1 -13   61.90    2.70
   4   1  14   70.90    4.80
  -4  -1 -14   47.20    4.90
   4   1  15   31.50    3.20
  -4  -1 -15   44.70    3.50
   4   1  16  114.00    7.90
  -4  -1 -16  125.30    8.40
  -4  -1 -18   24.40    3.20
  -4  -1 -19    8.10    3.50
   4   2 -18   20.40    4.80
   4   2 -17    1.30    4.10
  -4  -2  17    0.70    3.50
   4   2 -16   37.40    4.10
  -4  -2  16   64.00    6.00
   4   2 -15   -0.30    2.90
  -4  -2  15   -5.20    2.50
   4   2 -14  166.80    8.30
  -4  -2  14  123.00    7.40
   4   2 -13   53.00    4.70
  -4  -2  13   59.80    4.70
   4   2 -12  350.30   15.00
  -4  -2  12  398.50   16.30
   4   2 -11   24.20    2.50
  -4  -2  11   30.20    5.30
   4   2 -10 1160.00   29.50
  -4  -2  10 1177.80   41.60
   4   2  -9   52.30    3.50
  -4  -2   9   47.90    6.20
   4   2  -8 3267.90   76.90
  -4  -2   8 3145.70  105.60
   4   2  -7  188.10    5.70
  -4  -2   7  165.50    4.40
   4   2  -6 3060.10   57.90
  -4  -2   6 2968.40   56.70
   4   2  -5 1088.60   21.20
  -4  -2   5 1044.80   20.80
   4   2  -4 2172.00   41.50
  -4  -2   4 2106.40   39.80
   4   2  -3   93.60    2.80
  -4  -2   3   99.20    2.70
   4   2  -2 1988.10   37.70
  -4  -2   2 1930.20   36.70
   4   2  -1   47.10    1.80
  -4  -2   1   54.30    2.00
   4   2   0 2682.90   50.80
  -4  -2   0 2639.50   43.00
   4   2   1   51.60    3.10
  -4  -2  -1   54.30    2.90
   4   2   2 1563.00   23.10
  -4  -2  -2 1561.10   29.50
   4   2   3   90.40    6.10
  -4  -2  -3  101.80    5.80
   4   2   4  750.60   13.00
  -4  -2  -4  758.60   15.00
   4   2   5  526.60   13.10
  -4  -2  -5  553.50   18.00
   4   2   6  981.60   19.70
  -4  -2  -6 1000.10   19.50
   4   2   7 1040.50   25.40
  -4  -2  -7 1049.70   20.30
   4   2   8 2066.40   48.20
  -4  -2  -8 2029.80   39.00
   4   2   9  153.30    8.60
  -4  -2  -9  146.20    3.90
   4   2  10 1163.30   39.70
  -4  -2 -10 1112.70   21.80
   4   2  11  134.50    6.40
  -4  -2 -11  132.10    4.50
   4   2  12  689.10   25.20
  -4  -2 -12  619.40   15.60
   4   2  13   89.20    4.70
  -4  -2 -13   67.00    4.10
   4   2  14  278.40   12.10
  -4  -2 -14  259.60   10.70
   4   2  15   17.90    2.90
  -4  -2 -15   27.10    3.50
   4   2  16  286.40   13.00
  -4  -2 -16  282.80   12.30
   4   2  17    0.60    2.10
  -4  -2 -17   10.40    2.70
   4   2  18   19.50    4.80
  -4  -2 -18   24.60    4.00
  -4  -2 -19   34.20    4.60
   4   3 -17  294.10   15.10
  -4  -3  17  296.70   15.30
   4   3 -16   60.40    6.30
  -4  -3  16   56.90    6.10
   4   3 -15  171.30    9.20
  -4  -3  15  211.50   10.30
   4   3 -14   44.10    4.10
  -4  -3  14   37.60    4.30
   4   3 -13  109.60    6.70
  -4  -3  13  146.10    7.60
   4   3 -12  390.20   15.90
  -4  -3  12  423.10   16.50
   4   3 -11   79.00    3.70
  -4  -3  11   82.50    4.80
   4   3 -10  692.20   18.10
  -4  -3  10  703.00   24.80
   4   3  -9  247.50    7.60
  -4  -3   9  257.10   10.90
   4   3  -8 1028.70   26.00
  -4  -3   8 1006.20   36.20
   4   3  -7 1213.50   30.20
  -4  -3   7 1128.00   28.60
   4   3  -6 1552.40   30.80
  -4  -3   6 1496.80   29.80
   4   3  -5  119.20    3.80
  -4  -3   5  127.30    3.30
   4   3  -4  937.30   18.50
  -4  -3   4  925.90   18.20
   4   3  -3  985.10   19.70
  -4  -3   3  960.80   19.10
   4   3  -2  578.50   11.80
  -4  -3   2  573.30   11.60
   4   3  -1 3661.00   68.20
  -4  -3   1 3576.90   66.80
   4   3   0  104.80    3.30
  -4  -3   0  115.70    3.70
   4   3   1 5011.00   81.10
  -4  -3  -1 5041.90   81.10
   4   3   2  453.10    9.60
  -4  -3  -2  436.40    9.30
   4   3   3 2805.50   34.00
  -4  -3  -3 2836.00   52.50
   4   3   4  570.80    8.80
  -4  -3  -4  586.30   11.90
   4   3   5  701.00   11.90
  -4  -3  -5  701.10   14.20
   4   3   6 1112.10   22.10
  -4  -3  -6 1127.70   22.30
   4   3   7 1764.10   42.90
  -4  -3  -7 1794.30   29.90
   4   3   8 1043.80   36.80
  -4  -3  -8 1021.50   20.90
   4   3   9 1125.90   39.50
  -4  -3  -9 1058.90   20.50
   4   3  10  953.00   33.90
  -4  -3 -10  863.20   17.80
   4   3  11  201.50    8.90
  -4  -3 -11  179.50    4.60
   4   3  12  842.20   30.00
  -4  -3 -12  794.00   28.70
   4   3  13   73.70    4.20
  -4  -3 -13   56.00    3.60
   4   3  14  241.80   11.40
  -4  -3 -14  222.70   11.90
   4   3  15   92.10    6.00
  -4  -3 -15  104.50    6.50
   4   3  16  151.90   10.10
  -4  -3 -16  168.90   10.50
   4   3  17  132.00    8.50
  -4  -3 -17  135.00    8.60
   4   3  18   17.40    4.70
  -4  -3 -18   17.80    4.90
   4   4 -17    3.50    3.00
  -4  -4  17    2.90    3.10
   4   4 -16  459.50   24.30
  -4  -4  16  415.80   22.50
   4   4 -15   -9.00    4.00
  -4  -4  15   11.70    4.20
   4   4 -14  561.50   21.80
  -4  -4  14  590.10   22.40
   4   4 -13   13.60    4.40
  -4  -4  13   -3.70    3.90
   4   4 -12  741.00   27.30
  -4  -4  12  725.10   26.60
   4   4 -11   86.20    4.40
  -4  -4  11   88.80    6.00
   4   4 -10  953.50   24.80
  -4  -4  10  955.90   34.60
   4   4  -9  241.90    7.40
  -4  -4   9  258.80   10.50
   4   4  -8 1749.50   42.40
  -4  -4   8 1658.60   57.40
   4   4  -7   84.20    3.30
  -4  -4   7   73.30    4.30
   4   4  -6 1583.30   30.80
  -4  -4   6 1588.80   31.30
   4   4  -5    1.10    0.80
  -4  -4   5    1.40    0.80
   4   4  -4  420.00    8.90
  -4  -4   4  386.90    8.20
   4   4  -3  574.00   12.30
  -4  -4   3  575.90   11.70
   4   4  -2 1080.40   21.90
  -4  -4   2 1082.30   21.50
   4   4  -1  132.60    3.70
  -4  -4   1  130.90    3.80
   4   4   0  735.00   15.00
  -4  -4   0  717.40   14.80
   4   4   1   46.00    1.30
  -4  -4  -1   44.10    1.30
   4   4   2  677.80   10.50
  -4  -4  -2  705.00   13.90
   4   4   3  646.20   10.00
  -4  -4  -3  679.70   20.20
   4   4   4  363.90    6.70
  -4  -4  -4  366.50    7.80
   4   4   5  257.50   10.40
  -4  -4  -5  293.60   10.70
   4   4   6  391.50    8.30
  -4  -4  -6  407.40    8.70
   4   4   7  104.90    6.20
  -4  -4  -7  122.20    4.30
   4   4   8 1617.60   56.70
  -4  -4  -8 1516.50   25.40
   4   4   9  453.70   18.50
  -4  -4  -9  413.60    7.60
   4   4  10  804.50   28.90
  -4  -4 -10  739.10   13.10
   4   4  11  281.40   12.00
  -4  -4 -11  254.20    5.80
   4   4  12  940.10   34.30
  -4  -4 -12  876.50   17.60
   4   4  13  311.50   14.50
  -4  -4 -13  217.90   15.00
   4   4  14  734.20   27.50
  -4  -4 -14  737.80   27.50
   4   4  15  137.60   10.00
  -4  -4 -15  122.70   11.00
   4   4  16  656.90   26.00
  -4  -4 -16  631.50   24.40
   4   4  17   57.00    8.20
  -4  -4 -17   41.90    7.50
   4   4  18  463.40   25.40
  -4  -4 -18  475.40   24.60
   4   5 -17  361.00   20.20
  -4  -5  17  376.50   19.80
   4   5 -16   21.90    4.20
  -4  -5  16   12.20    2.90
   4   5 -15  388.80   22.00
  -4  -5  15  394.70   21.10
  -4  -5  14    1.30    3.40
   4   5 -13  473.60   18.80
  -4  -5  13  490.10   19.00
   4   5 -12    8.80    2.60
  -4  -5  12    7.70    2.50
   4   5 -11  606.00   16.40
  -4  -5  11  649.90   24.00
   4   5 -10   10.60    2.10
  -4  -5  10   10.20    3.40
   4   5  -9  449.90   12.90
  -4  -5   9  433.60   16.30
   4   5  -8   24.60    2.30
  -4  -5   8   19.80    3.50
   4   5  -7  671.20   17.40
  -4  -5   7  671.70   24.80
   4   5  -6  511.40   13.40
  -4  -5   6  541.10   19.80
   4   5  -5 1293.20   25.90
  -4  -5   5 1221.70   25.20
   4   5  -4   41.00    4.50
  -4  -5   4   31.70    2.60
   4   5  -3 2190.30   42.30
  -4  -5   3 2117.00   40.60
   4   5  -2   48.00    2.10
  -4  -5   2   52.10    4.90
   4   5  -1 2388.10   39.60
  -4  -5   1 2344.90   44.60
   4   5   0   64.10    2.80
  -4  -5   0   72.90   10.30
   4   5   1 2342.10   34.70
  -4  -5  -1 2320.30   44.90
   4   5   2   96.10    4.60
  -4  -5  -2   82.90    3.80
   4   5   3 3225.20   52.70
  -4  -5  -3 3159.70   73.50
   4   5   4  196.10   10.60
  -4  -5  -4  202.80   21.40
   4   5   5 2373.90   38.90
  -4  -5  -5 2388.70   39.30
   4   5   6  502.30   19.70
  -4  -5  -6  476.90    8.70
   4   5   7 1078.80   25.50
  -4  -5  -7 1058.30   16.20
   4   5   8  314.30   17.10
  -4  -5  -8  300.20    5.70
   4   5   9  640.70   23.10
  -4  -5  -9  601.00   12.20
   4   5  10   69.00    6.00
  -4  -5 -10   78.20    2.50
   4   5  11  616.00   23.00
  -4  -5 -11  551.30   11.40
   4   5  12  129.50    6.90
  -4  -5 -12  124.60    3.60
   4   5  13  491.40   20.10
  -4  -5 -13  505.30   18.50
   4   5  14   62.00    5.30
  -4  -5 -14   46.90    6.10
   4   5  15  235.00   11.40
  -4  -5 -15  287.80   12.80
   4   5  16   25.30    4.50
  -4  -5 -16   21.30    4.30
   4   5  17  283.30   16.60
  -4  -5 -17  262.30   14.30
   4   5  18   48.70    5.90
  -4  -5 -18   34.00    6.20
   4   6 -16    1.90    4.50
  -4  -6  16    0.80    4.10
   4   6 -15   91.30    7.40
  -4  -6  15   79.30    6.90
   4   6 -14   43.60    5.30
  -4  -6  14   50.40    5.30
   4   6 -13  116.60    6.80
  -4  -6  13  126.00    6.90
   4   6 -12  115.70    6.70
  -4  -6  12  105.00    6.60
   4   6 -11  439.00   12.90
  -4  -6  11  463.80   18.30
   4   6 -10  215.80    7.00
  -4  -6  10  208.20    9.10
   4   6  -9  235.10    7.30
  -4  -6   9  235.80   10.20
   4   6  -8   92.10    3.80
  -4  -6   8   90.50    5.10
   4   6  -7  773.40   20.40
  -4  -6   7  839.30   32.20
   4   6  -6  569.10   15.30
  -4  -6   6  556.70   21.10
   4   6  -5  355.00   10.90
  -4  -6   5  401.30   19.50
   4   6  -4 2514.50   49.10
  -4  -6   4 2469.80   57.90
   4   6  -3  175.40    4.70
  -4  -6   3  187.60    5.60
   4   6  -2 1467.80   25.70
  -4  -6   2 1461.60   29.20
   4   6  -1  116.20   10.40
  -4  -6   1   83.00   10.80
   4   6   0 1437.90   24.30
  -4  -6   0 1427.30   28.70
   4   6   1  703.10   39.50
  -4  -6  -1  735.90   54.30
   4   6   2 1169.90   18.20
  -4  -6  -2 1187.50   23.00
   4   6   3  364.70   13.80
  -4  -6  -3  334.50   18.70
   4   6   4 2381.70   45.50
  -4  -6  -4 2364.20   45.70
   4   6   5  448.80   18.10
  -4  -6  -5  496.40   14.80
   4   6   6 1202.30   29.30
  -4  -6  -6 1196.40   23.80
   4   6   7  757.80   28.10
  -4  -6  -7  802.20   16.10
   4   6   8  153.40    3.30
  -4  -6  -8  163.00    3.30
   4   6   9  566.00   23.00
  -4  -6  -9  524.70    9.50
   4   6  10  359.30   14.90
  -4  -6 -10  334.20    7.20
   4   6  11  413.10   16.60
  -4  -6 -11  403.10   10.90
   4   6  12  240.90   10.20
  -4  -6 -12  215.30    6.30
   4   6  13  230.80   10.10
  -4  -6 -13  214.50    9.90
   4   6  14   66.60    4.90
  -4  -6 -14   59.70    4.60
   4   6  15   85.30    6.50
  -4  -6 -15   57.00    5.10
  -4  -6 -16   19.20    3.80
   4   6  17   37.50    5.20
  -4  -6 -17    6.60    4.10
   4   7 -16    8.60    4.10
  -4  -7  16    2.70    3.80
   4   7 -15    1.70    2.50
  -4  -7  15    6.00    2.90
   4   7 -14    3.60    4.30
  -4  -7  14    6.30    3.70
   4   7 -13   91.80    6.00
  -4  -7  13  118.70    7.10
   4   7 -12    8.60    2.90
  -4  -7  12    0.10    2.50
   4   7 -11  207.60    9.90
  -4  -7  11  266.70   11.90
   4   7 -10  123.70    4.60
  -4  -7  10  120.80    6.90
   4   7  -9  566.80   15.40
  -4  -7   9  597.80   22.90
   4   7  -8  186.00    6.40
  -4  -7   8  194.30    9.00
   4   7  -7  390.20   11.40
  -4  -7   7  406.20   15.80
   4   7  -6   28.20    2.60
  -4  -7   6   38.40    3.80
   4   7  -5 2517.60   59.30
  -4  -7   5 2577.90   86.90
   4   7  -4  261.30    8.00
  -4  -7   4  275.90   11.80
   4   7  -3 2168.30   52.10
  -4  -7   3 2047.50   48.70
   4   7  -2  215.80   10.60
  -4  -7   2  205.60    8.50
   4   7  -1 2014.90   38.30
  -4  -7   1 1959.90   47.80
   4   7   0   48.60    3.50
   4   7   1 1948.70   32.80
  -4  -7  -1 1973.70   47.30
   4   7   2  418.50   20.10
   4   7   3 1968.30   38.90
  -4  -7  -3 2074.00   50.50
   4   7   4  654.80   26.50
  -4  -7  -4  639.20   24.10
   4   7   5 2450.30   47.30
  -4  -7  -5 2509.30   60.00
   4   7   6  436.10   20.80
  -4  -7  -6  462.20   17.20
   4   7   7  632.30   16.00
  -4  -7  -7  654.10   13.60
   4   7   8  433.20   22.60
  -4  -7  -8  388.00    7.60
   4   7   9  428.90   17.30
  -4  -7  -9  401.90    7.30
   4   7  10  229.50    6.50
  -4  -7 -10  245.00    5.80
   4   7  11  315.10    9.00
  -4  -7 -11  341.20    7.80
   4   7  12    3.70    3.40
  -4  -7 -12   16.80    1.60
   4   7  13  157.00    8.10
  -4  -7 -13  129.40    6.90
   4   7  14    9.70    3.90
  -4  -7 -14   -1.10    2.90
   4   7  15   42.70    4.20
  -4  -7 -15   27.50    3.60
   4   7  16   -2.20    2.60
  -4  -7 -16    0.90    2.30
   4   7  17   -6.90    2.50
  -4  -7 -17   -1.40    2.10
   4   8 -15   71.00    6.00
  -4  -8  15   65.80    5.80
   4   8 -14   18.10    4.70
  -4  -8  14   24.00    4.30
   4   8 -13   60.30    5.30
  -4  -8  13   39.70    5.30
   4   8 -12   32.90    3.80
  -4  -8  12   38.70    3.80
   4   8 -11   84.50    5.60
  -4  -8  11   74.80    5.40
   4   8 -10  168.90    6.00
  -4  -8  10  156.10    7.80
   4   8  -9    3.10    2.00
  -4  -8   9    3.60    3.00
   4   8  -8  217.20    7.00
  -4  -8   8  226.30   10.20
   4   8  -7  290.10    8.50
  -4  -8   7  284.10   11.80
   4   8  -6  756.90   19.90
  -4  -8   6  783.70   28.50
   4   8  -5  294.80    8.60
  -4  -8   5  285.00   11.60
   4   8  -4  888.50   18.50
  -4  -8   4  952.20   33.60
   4   8  -3    2.70    1.20
  -4  -8   3   11.20    4.10
   4   8  -2 1527.70   30.20
  -4  -8   2 1501.50   36.70
   4   8  -1   11.10    1.40
  -4  -8   1    9.60    1.70
   4   8   0 1738.50   41.90
  -4  -8   0 1684.50   41.80
   4   8   1    6.00    1.10
  -4  -8  -1    6.70    1.70
   4   8   2 1470.80   36.10
  -4  -8  -2 1485.90   29.40
   4   8   3   18.30    2.00
  -4  -8  -3   18.00    2.30
   4   8   4 1155.40   28.50
  -4  -8  -4 1190.90   29.80
   4   8   5  204.40    6.40
  -4  -8  -5  182.60    5.90
   4   8   6  706.20   18.40
  -4  -8  -6  670.30   18.10
   4   8   7  379.50   10.40
  -4  -8  -7  356.80   10.20
   4   8   8  501.50   13.00
  -4  -8  -8  496.00   10.70
   4   8   9   44.20    2.50
  -4  -8  -9   55.60    2.10
   4   8  10  154.90    5.40
  -4  -8 -10  144.30    3.70
  -4  -8 -11   53.10    2.10
   4   8  12  105.90    7.00
  -4  -8 -12  108.00    3.90
   4   8  13   92.50    6.40
  -4  -8 -13  101.60    4.40
   4   8  14   27.60    4.90
  -4  -8 -14   22.50    2.30
   4   8  15   92.80    7.10
  -4  -8 -15   69.40    5.90
   4   8  16   60.10    6.00
  -4  -8 -16   50.00    5.50
   4   9 -14   82.30    6.60
  -4  -9  14   85.50    7.00
   4   9 -13  394.20   19.60
  -4  -9  13  421.20   21.10
   4   9 -12   50.90    4.60
  -4  -9  12   62.90    5.00
   4   9 -11  399.20   17.40
  -4  -9  11  447.70   18.90
   4   9 -10   29.00    4.50
  -4  -9  10   44.20    4.60
   4   9  -9  442.60   18.10
  -4  -9   9  428.00   17.80
   4   9  -8   26.00    2.70
  -4  -9   8   45.00    4.10
   4   9  -7  479.40   13.00
  -4  -9   7  504.00   19.90
   4   9  -6   63.90    3.10
  -4  -9   6   68.80    4.50
   4   9  -5    1.90    2.00
  -4  -9   5    6.20    2.80
   4   9  -4    4.10    1.20
  -4  -9   4    3.60    2.70
   4   9  -3   24.70    1.60
  -4  -9   3   27.90    2.80
   4   9  -2   15.50    1.40
  -4  -9   2   19.50    1.70
   4   9  -1   39.20    2.40
  -4  -9   1   26.30    1.80
   4   9   0    5.30    1.10
  -4  -9   0    5.30    0.80
   4   9   1   59.50    2.50
  -4  -9  -1   48.60    1.80
   4   9   2   -0.50    3.60
  -4  -9  -2    0.80    0.70
   4   9   3   38.20    2.30
  -4  -9  -3   40.30    2.80
   4   9   4   50.40    4.60
  -4  -9  -4   33.20    5.40
   4   9   5   34.00    2.20
  -4  -9  -5   30.30    2.30
   4   9   6  143.20    5.50
  -4  -9  -6  141.00    5.30
   4   9   7  312.20    9.10
  -4  -9  -7  332.10    9.60
   4   9   8   69.90    4.70
  -4  -9  -8   78.40    4.10
   4   9   9  509.60   13.70
  -4  -9  -9  531.40   14.30
   4   9  10   77.90    3.60
  -4  -9 -10   88.80    3.90
   4   9  11  463.70   12.60
  -4  -9 -11  441.30   12.30
   4   9  12  100.80    4.20
  -4  -9 -12   79.00    4.30
   4   9  13  566.10   27.30
  -4  -9 -13  483.60   23.50
   4   9  14   83.60    6.90
  -4  -9 -14   78.10    6.80
   4   9  15  457.90   23.60
  -4  -9 -15  439.90   21.30
   4  10 -13    0.20    2.80
  -4 -10  13    9.00    2.80
   4  10 -12  293.80   16.40
  -4 -10  12  289.80   15.90
   4  10 -11    8.10    4.00
  -4 -10  11   26.30    3.90
   4  10 -10  257.00   13.90
  -4 -10  10  294.30   16.20
   4  10  -9    3.10    2.60
  -4 -10   9    5.70    2.50
   4  10  -8  499.50   14.20
  -4 -10   8  501.00   20.30
   4  10  -7   -0.60    3.70
  -4 -10   7    9.80    3.30
   4  10  -6  193.60    6.50
  -4 -10   6  240.90   10.80
   4  10  -5    0.80    1.80
  -4 -10   5    0.70    2.70
   4  10  -4   65.50    3.20
  -4 -10   4   55.40    4.40
   4  10  -3   11.50    1.70
  -4 -10   3   12.60    2.70
   4  10  -2  198.50    6.30
  -4 -10   2  196.90    5.90
   4  10  -1   14.70    1.60
  -4 -10   1   10.80    1.00
   4  10   0  308.50    8.60
  -4 -10   0  307.40    7.10
   4  10   1    8.40    1.60
  -4 -10  -1   11.70    2.50
   4  10   2  252.70    7.50
  -4 -10  -2  275.50    8.60
   4  10   3    4.20    1.60
  -4 -10  -3   13.10    2.40
   4  10   4   88.70    3.40
  -4 -10  -4   64.90    3.40
   4  10   5    7.10    1.70
  -4 -10  -5    9.40    2.50
   4  10   6  158.30    5.40
  -4 -10  -6  162.00    5.50
   4  10   7   28.70    2.10
  -4 -10  -7   37.60    2.80
   4  10   8  436.90   12.40
  -4 -10  -8  448.00   13.00
   4  10   9   12.00    1.80
  -4 -10  -9   16.90    2.00
   4  10  10  292.30    9.20
  -4 -10 -10  333.80   10.70
   4  10  11   84.50    7.10
  -4 -10 -11   75.00    4.00
   4  10  12  259.50   14.00
  -4 -10 -12  284.10   15.40
   4  10  13  135.10    9.20
  -4 -10 -13   95.20    9.50
   4  11 -11  330.70   19.70
  -4 -11  11  344.10   19.20
   4  11 -10   43.30    5.30
  -4 -11  10   46.20    5.20
   4  11  -9  540.00   26.90
  -4 -11   9  512.60   24.40
   4  11  -8  105.30    7.40
  -4 -11   8   80.70    6.20
   4  11  -7  301.30    9.20
  -4 -11   7  356.50   14.10
   4  11  -6  236.50    7.30
  -4 -11   6  287.90   12.30
   4  11  -5  254.00    8.00
  -4 -11   5  263.40   11.30
   4  11  -4   46.40    2.70
  -4 -11   4   54.60    4.60
   4  11  -3   97.50    3.90
  -4 -11   3   95.20    6.10
   4  11  -2   -0.60    1.50
  -4 -11   2   -3.10    3.10
   4  11  -1  145.40    5.10
  -4 -11   1  130.20    7.10
   4  11   0    2.20    1.60
  -4 -11   0    7.70    4.70
   4  11   1  100.60    4.80
  -4 -11  -1   97.80    4.30
   4  11   2   11.80    1.70
  -4 -11  -2   27.30    4.20
   4  11   3  194.50    6.00
  -4 -11  -3  205.00    7.00
   4  11   4   56.10    4.50
  -4 -11  -4   82.70    9.20
   4  11   5  294.70    8.80
  -4 -11  -5  315.90    9.60
   4  11   7  388.40   16.00
  -4 -11  -7  429.60   12.70
   4  11   8  134.70    8.90
  -4 -11  -8  137.50    5.50
   4  11   9  673.40   33.80
  -4 -11  -9  644.60   22.10
   4  11  10   76.30    6.50
  -4 -11 -10   86.00    4.50
   4  11  11  473.60   24.10
  -4 -11 -11  458.00   17.20
   4  11  12   78.10    7.00
  -4 -11 -12   92.10    7.70
   4  12  -9    7.50    3.90
  -4 -12   9    9.40    3.60
   4  12  -8  133.40    8.60
  -4 -12   8  131.80    8.70
   4  12  -7   25.40    4.80
  -4 -12   7   25.30    4.00
   4  12  -6  442.40   21.20
  -4 -12   6  476.60   22.40
   4  12  -5   13.30    1.80
  -4 -12   5   18.30    3.50
   4  12  -4  873.60   28.40
  -4 -12   4  872.80   40.40
   4  12  -3    6.20    1.60
  -4 -12   3   -5.20    2.30
   4  12  -2  957.90   24.90
  -4 -12   2  951.90   34.50
   4  12  -1   20.60    5.10
  -4 -12   1    5.90    3.80
   4  12   0  917.70   32.60
  -4 -12   0  936.50   35.10
   4  12   1   80.30   15.20
  -4 -12  -1   78.30    9.00
   4  12   2  975.40   35.80
  -4 -12  -2  950.90   25.20
   4  12   3   65.70   12.40
  -4 -12  -3   61.20    7.80
   4  12   4  887.50   32.70
  -4 -12  -4  878.70   23.40
   4  12   5   78.20   13.10
  -4 -12  -5  109.30    9.50
   4  12   6  414.00   21.50
  -4 -12  -6  424.70   15.10
   4  12   7  134.80   13.90
  -4 -12  -7  132.30    8.20
   4  12   8  122.20    8.80
  -4 -12  -8  133.60    6.30
   4  12   9  115.30   10.10
  -4 -12  -9  107.80    5.90
   4  12  10  117.30    8.90
  -4 -12 -10   94.80    5.10
   4  13  -6   93.60    7.30
  -4 -13   6   93.10    7.40
   4  13  -5  882.40   41.80
  -4 -13   5  812.80   40.00
   4  13  -4   57.40    6.30
  -4 -13   4   86.30    6.50
   4  13  -3 1059.70   47.50
  -4 -13   3 1172.30   54.30
   4  13  -2   39.70    5.30
  -4 -13   2   35.70    4.60
   4  13  -1  849.00   38.30
  -4 -13   1  960.30   46.10
   4  13   0   -1.20    2.60
  -4 -13   0    1.90    2.50
   4  13   1  914.90   41.90
  -4 -13  -1  930.50   30.70
   4  13   2   33.90    5.10
  -4 -13  -2   39.20    3.80
   4  13   3 1116.70   51.30
  -4 -13  -3 1118.50   37.20
   4  13   4   67.70    7.40
  -4 -13  -4   54.20    4.20
  -4 -13  -5  864.90   28.50
  -4 -13  -6  140.30    6.50
   4  13   7  386.70   19.90
  -4 -13  -7  369.20   13.90
   5  -9  -5   -3.60    3.10
  -5   9   5   -4.80    1.80
   5  -9  -4    3.30    2.70
  -5   9   4    5.00    1.80
   5  -9  -3   -2.00    3.90
  -5   9   3    7.20    2.00
   5  -9  -2   -6.30    2.00
  -5   9   2   -0.70    1.60
   5  -9  -1    4.40    2.70
  -5   9   1    3.80    1.70
   5  -9   0    6.30    2.20
   5  -9   1   -7.30    3.70
   5  -9   2    6.40    1.80
   5  -9   3    1.40    2.00
   5  -9   4    5.80    2.30
   5  -9   5   -2.90    2.10
   5  -9   6   10.90    2.70
   5  -9   7    6.70    3.40
   5  -8  -8   -7.50    3.70
  -5   8   8    2.90    2.30
   5  -8  -7    8.60    4.30
  -5   8   7   -1.70    1.50
   5  -8  -6    5.50    4.40
  -5   8   6   12.20    2.30
   5  -8  -5   -2.70    2.60
  -5   8   5   -2.50    1.60
   5  -8  -4    8.10    4.00
  -5   8   4    3.20    1.80
   5  -8  -3   17.40    4.10
  -5   8   3    8.90    2.00
   5  -8  -2    4.50    3.80
  -5   8   2    0.90    1.30
   5  -8  -1   26.00    4.80
   5  -8   0    1.20    2.10
  -5   8   0   -0.10    1.20
   5  -8   1   26.40    2.70
  -5   8  -1   21.50    1.70
   5  -8   2    6.40    3.70
   5  -8   3   -2.20    1.70
   5  -8   4    6.70    2.60
   5  -8   5   15.70    2.20
   5  -8   6    5.20    2.60
   5  -8   8    9.00    3.20
  -5   8  -8   16.00    3.10
   5  -8   9   16.80    3.20
  -5   8  -9    6.20    2.70
   5  -8  10    5.70    3.10
  -5   8 -10   -4.50    1.90
   5  -7 -10    5.70    4.50
  -5   7  10    8.20    3.80
   5  -7  -9   -0.10    3.80
  -5   7   9   10.00    2.10
   5  -7  -8   -2.40    2.50
  -5   7   8    8.00    2.00
   5  -7  -7   15.50    4.00
  -5   7   7    5.50    1.80
   5  -7  -6   19.90    3.60
  -5   7   6   17.10    1.90
   5  -7  -5    1.80    3.80
  -5   7   5    3.40    1.90
   5  -7  -4   -4.30    3.60
  -5   7   4    1.60    1.50
   5  -7  -3   -4.90    3.70
  -5   7   3   -2.20    1.50
   5  -7  -2   31.30    4.50
  -5   7   2   12.60    1.60
   5  -7  -1   -1.00    3.50
  -5   7   1    9.70    1.40
   5  -7   0    6.40    3.70
  -5   7   0    4.80    1.30
   5  -7   1    0.70    1.60
  -5   7  -1    2.40    1.00
   5  -7   2   13.90    2.60
  -5   7  -2   13.50    1.30
   5  -7   3    2.80    1.90
  -5   7  -3    3.10    0.70
   5  -7   4   20.20    2.50
   5  -7   5    8.10    1.10
   5  -7   6    1.00    2.60
  -5   7  -7    3.40    2.80
   5  -7   8   15.50    3.40
  -5   7  -8   17.90    3.40
   5  -7   9   14.80    2.70
  -5   7  -9   21.90    3.50
   5  -7  10    3.20    2.80
  -5   7 -10   -3.10    2.10
  -5   7 -11    4.50    2.20
  -5   7 -12   -0.50    3.40
  -5   6  12    3.70    2.20
  -5   6  11   17.10    2.00
  -5   6  10    4.10    2.30
   5  -6  -9    3.40    1.90
  -5   6   9    3.50    1.90
   5  -6  -8    2.80    2.20
  -5   6   8    1.20    2.10
   5  -6  -7   27.00    3.00
  -5   6   7   40.40    2.80
   5  -6  -6    4.90    1.90
  -5   6   6    0.50    1.80
   5  -6  -5    2.10    1.60
  -5   6   5    0.90    1.60
   5  -6  -4   -2.10    1.30
  -5   6   4    2.50    1.70
   5  -6  -3   12.10    1.40
  -5   6   3    9.80    1.60
   5  -6  -2    5.10    1.00
  -5   6   2    8.70    1.30
   5  -6  -1   24.30    1.50
  -5   6   1   18.30    1.50
   5  -6   0    3.60    0.50
  -5   6   0    3.20    1.00
   5  -6   1    2.70    0.40
  -5   6  -1    2.40    0.50
   5  -6   2    0.40    0.90
  -5   6  -2    3.40    0.60
   5  -6   3   25.90    1.60
   5  -6   4   12.40    1.30
   5  -6   5   -0.90    1.90
   5  -6   6    0.80    1.90
  -5   6  -6    2.40    2.70
   5  -6   7    9.20    1.90
  -5   6  -7   10.90    3.10
   5  -6   8    6.60    2.60
  -5   6  -8   13.70    2.50
   5  -6   9    3.70    2.40
  -5   6  -9    1.20    2.80
   5  -6  10   29.40    3.60
  -5   6 -10   40.70    4.10
  -5   6 -11    1.30    3.50
  -5   6 -12   15.20    2.90
  -5   6 -13    7.90    3.10
  -5   6 -14   15.10    3.90
   5  -5 -13    4.60    2.20
  -5   5  13    0.60    1.90
   5  -5 -12    2.30    2.20
  -5   5  12    2.70    2.70
  -5   5  11    1.00    1.80
   5  -5 -10   14.60    3.20
  -5   5  10   11.60    3.30
   5  -5  -9    2.30    2.30
  -5   5   9   -5.90    2.00
   5  -5  -8   11.00    2.60
  -5   5   8    0.90    2.10
   5  -5  -7    7.10    1.80
  -5   5   7   -1.20    1.40
   5  -5  -6   13.90    2.00
  -5   5   6   13.30    1.50
   5  -5  -5   10.10    1.70
  -5   5   5    5.30    1.70
   5  -5  -4    3.50    0.70
  -5   5   4    4.10    1.40
   5  -5  -3    6.20    0.70
  -5   5   3    7.40    1.00
   5  -5  -2   13.10    0.90
  -5   5   2   15.10    1.10
   5  -5  -1    5.10    0.60
  -5   5   1    5.60    1.10
   5  -5   0    0.50    0.60
  -5   5   0    3.10    0.60
   5  -5   1    5.40    0.60
  -5   5  -1    4.00    0.50
   5  -5   2    2.30    0.90
  -5   5  -2   -0.30    2.00
   5  -5   3    3.60    1.20
   5  -5   4    6.00    1.20
   5  -5   5   30.90    2.30
  -5   5  -5   27.00    3.10
   5  -5   6    2.90    1.70
  -5   5  -6    0.90    2.70
   5  -5   7    8.40    1.60
  -5   5  -7    2.70    2.10
   5  -5   8    1.80    2.40
  -5   5  -8   -0.80    2.90
   5  -5   9   31.30    2.90
  -5   5  -9   21.00    1.00
   5  -5  10    0.30    2.40
  -5   5 -10   -0.30    0.60
  -5   5 -11    1.50    0.90
  -5   5 -12    0.40    1.10
  -5   5 -13    4.40    2.60
  -5   5 -14    6.20    1.30
  -5   5 -15   15.90    3.40
   5  -4 -14    7.80    2.70
  -5   4  14    3.40    1.80
   5  -4 -13    5.40    2.30
  -5   4  13    3.80    1.90
   5  -4 -12    7.70    2.30
  -5   4  12    9.80    2.10
   5  -4 -11   -2.40    1.70
  -5   4  11   -0.50    1.80
   5  -4 -10    2.60    1.70
  -5   4  10    2.40    1.70
   5  -4  -9    3.20    1.70
  -5   4   9    2.30    1.60
   5  -4  -8    6.50    2.20
  -5   4   8   18.30    2.10
   5  -4  -7    1.00    1.30
  -5   4   7    1.80    0.70
   5  -4  -6    9.60    1.10
  -5   4   6   10.50    0.90
   5  -4  -5    1.50    1.10
  -5   4   5    2.70    0.60
   5  -4  -4    1.90    0.90
  -5   4   4    1.20    0.50
   5  -4  -3   30.10    1.40
  -5   4   3   20.90    1.70
   5  -4  -2    2.70    0.80
  -5   4   2    4.10    0.70
   5  -4  -1    9.40    0.60
  -5   4   1   10.40    1.10
   5  -4   0    5.40    0.50
  -5   4   0    6.10    0.60
   5  -4   1   33.30    0.90
  -5   4  -1   37.70    1.20
   5  -4   2    7.70    1.40
  -5   4  -2    3.50    2.40
   5  -4   3   29.10    1.70
   5  -4   4   10.10    3.10
   5  -4   5   12.00    2.20
  -5   4  -5   14.40    2.80
   5  -4   6   13.90    2.10
  -5   4  -6    0.40    2.60
   5  -4   7   14.80    1.90
   5  -4   8    3.90    1.90
  -5   4  -8    1.40    2.00
   5  -4   9    6.10    1.40
  -5   4  -9    5.30    0.50
   5  -4  10   -4.10    1.80
  -5   4 -10   -0.40    0.70
  -5   4 -11    2.10    1.00
  -5   4 -12    2.70    1.30
  -5   4 -13    0.80    1.40
  -5   4 -14    9.20    1.40
  -5   4 -15    2.60    1.60
   5  -3 -15    9.40    3.20
  -5   3  15    3.30    2.00
   5  -3 -14   -2.90    3.30
  -5   3  14   14.30    3.80
   5  -3 -13    5.60    2.40
  -5   3  13    1.20    2.00
   5  -3 -12    1.00    1.90
  -5   3  12    4.40    1.90
   5  -3 -11   -6.50    2.70
  -5   3  11   -4.90    2.50
   5  -3 -10    2.10    2.80
  -5   3  10   10.70    3.20
   5  -3  -9    8.40    2.60
  -5   3   9    4.50    2.00
   5  -3  -8    3.80    2.40
  -5   3   8    4.00    1.00
   5  -3  -7    1.60    1.30
  -5   3   7    2.70    0.80
   5  -3  -6    2.50    1.10
  -5   3   6    2.10    0.80
   5  -3  -5   15.40    1.20
  -5   3   5   11.60    0.90
   5  -3  -4    9.70    1.00
  -5   3   4   12.60    0.90
   5  -3  -3   12.60    1.10
  -5   3   3   11.50    0.80
   5  -3  -2    1.40    0.50
  -5   3   2    1.70    0.70
   5  -3  -1    1.30    0.50
  -5   3   1   -0.40    1.10
   5  -3   0    2.10    0.40
  -5   3   0    2.90    0.70
   5  -3   1    0.70    0.30
  -5   3  -1    1.10    0.30
   5  -3   2   51.00    1.80
  -5   3  -2   42.50    4.10
   5  -3   3    1.00    1.10
  -5   3  -3   -0.10    2.30
   5  -3   4   21.10    1.70
  -5   3  -4   26.30    2.80
   5  -3   5    3.50    1.30
  -5   3  -5    1.10    2.60
   5  -3   6   62.40    2.90
  -5   3  -6   66.80    4.40
   5  -3   7   -1.60    1.70
  -5   3  -7    2.50    2.50
   5  -3   8   50.10    1.40
  -5   3  -8   55.40    1.50
   5  -3   9    1.60    0.50
  -5   3  -9    1.90    0.50
   5  -3  10   12.90    1.30
  -5   3 -10   12.90    1.10
  -5   3 -12   32.50    1.90
  -5   3 -13    0.10    1.40
  -5   3 -14    8.00    1.70
  -5   3 -15   10.60    1.90
  -5   3 -16    3.40    1.90
  -5   3 -17    5.30    2.10
   5  -2 -16   10.60    3.40
  -5   2  16   17.20    3.30
   5  -2 -15    4.80    3.60
  -5   2  15   22.40    4.30
   5  -2 -14   -2.60    2.30
  -5   2  14    7.40    2.10
   5  -2 -13    0.30    3.00
  -5   2  13   -3.30    3.50
   5  -2 -12    2.30    2.20
  -5   2  12   -2.70    2.40
   5  -2 -11   -0.40    2.90
  -5   2  11    3.50    3.20
   5  -2 -10   33.60    3.30
  -5   2  10   16.60    2.50
   5  -2  -9    7.20    1.70
  -5   2   9    5.10    1.80
   5  -2  -8    1.00    2.50
  -5   2   8    3.90    2.00
   5  -2  -7    1.80    1.20
  -5   2   7   -1.00    0.80
   5  -2  -6   37.70    1.90
  -5   2   6   34.10    1.70
   5  -2  -5   12.50    1.40
  -5   2   5   12.40    0.90
   5  -2  -4   -1.80    1.00
  -5   2   4    2.10    0.70
   5  -2  -3    1.00    0.60
  -5   2   3    1.00    0.60
   5  -2  -2    0.80    0.70
  -5   2   2    4.00    0.60
   5  -2  -1   17.20    0.70
  -5   2   1   22.70    1.40
   5  -2   0   18.30    0.70
  -5   2   0   19.00    0.80
   5  -2   1    9.70    0.40
  -5   2  -1    9.30    0.30
   5  -2   2   27.60    1.50
  -5   2  -2   22.50    2.40
   5  -2   3   13.70    1.50
  -5   2  -3   13.50    3.20
   5  -2   4   16.30    1.70
  -5   2  -4   23.60    2.30
   5  -2   5    5.30    1.50
  -5   2  -5    7.10    2.40
   5  -2   6   34.40    2.00
  -5   2  -6   46.40    3.50
   5  -2   7    3.90    0.40
  -5   2  -7    3.30    0.30
   5  -2   8   15.30    0.70
  -5   2  -8   13.70    0.70
   5  -2   9    6.10    0.60
  -5   2  -9    8.80    1.00
   5  -2  10    1.50    1.30
  -5   2 -10   -2.70    1.00
   5  -2  11    0.60    1.40
  -5   2 -11   -1.80    2.10
   5  -2  12   30.30    2.30
  -5   2 -12   18.80    2.00
  -5   2 -13    4.80    1.90
  -5   2 -14   -2.30    1.70
  -5   2 -15   -0.30    1.90
  -5   2 -16    7.30    2.40
  -5   2 -17   -0.20    1.30
   5  -1 -16   14.70    4.30
  -5   1  16    4.60    3.70
   5  -1 -15   -3.40    2.60
  -5   1  15   11.40    3.00
   5  -1 -14   11.70    3.80
  -5   1  14   17.40    4.50
   5  -1 -13   -5.20    3.40
  -5   1  13   -4.60    3.70
   5  -1 -12   19.30    3.20
  -5   1  12   14.90    3.00
   5  -1 -11   17.50    3.60
  -5   1  11   10.70    3.50
   5  -1 -10   51.10    2.90
  -5   1  10   61.20    4.80
   5  -1  -9    1.50    1.50
  -5   1   9    3.20    2.20
   5  -1  -8   -0.30    1.60
  -5   1   8   -0.80    1.00
   5  -1  -7    1.40    1.10
  -5   1   7    3.80    0.90
   5  -1  -6   89.70    3.30
  -5   1   6   81.50    2.30
   5  -1  -5    4.80    1.00
  -5   1   5    0.90    0.60
   5  -1  -4   28.00    1.20
  -5   1   4   23.30    1.10
   5  -1  -3    4.70    0.80
  -5   1   3    1.80    0.60
   5  -1  -2   55.20    1.60
  -5   1   2   55.50    1.50
   5  -1  -1   12.40    0.90
  -5   1   1   11.10    0.90
   5  -1   0    1.50    0.40
  -5   1   0    5.90    0.90
   5  -1   1    4.90    0.40
  -5   1  -1    5.60    0.60
   5  -1   2    2.50    0.80
  -5   1  -2   -2.40    2.60
   5  -1   3    1.70    0.90
  -5   1  -3    3.20    2.50
   5  -1   4   25.00    1.30
  -5   1  -4   23.50    2.80
   5  -1   5    3.90    1.00
  -5   1  -5    5.20    1.60
   5  -1   6   10.30    0.50
  -5   1  -6   10.30    0.50
   5  -1   7   36.10    1.00
  -5   1  -7   35.20    1.10
   5  -1   8   47.30    1.30
  -5   1  -8   56.00    2.20
   5  -1   9    5.30    0.70
  -5   1  -9    8.20    1.20
   5  -1  10    0.80    1.20
  -5   1 -10    1.20    0.70
   5  -1  11   49.30    3.30
  -5   1 -11   51.30    2.10
   5  -1  12    7.60    1.80
  -5   1 -12   -2.80    1.70
   5  -1  13   12.40    1.90
  -5   1 -13    8.00    2.00
  -5   1 -14   -0.40    1.90
  -5   1 -15    5.40    2.20
  -5   1 -16    3.20    2.40
  -5   1 -17    3.30    1.90
  -5   1 -18   -1.10    2.60
   5   0 -17   14.40    4.30
   5   0 -16    3.60    4.00
   5   0 -15   14.30    4.20
  -5   0  15   26.20    4.30
   5   0 -14   -5.10    2.50
  -5   0  14   -7.00    3.80
   5   0 -13    0.60    2.40
  -5   0  13    3.80    2.60
   5   0 -12   15.60    2.80
  -5   0  12    7.80    2.20
   5   0 -11   81.60    3.70
  -5   0  11   73.20    5.40
   5   0 -10    3.40    2.00
  -5   0  10   10.20    3.30
   5   0  -9    6.20    1.90
   5   0  -8   25.60    2.30
  -5   0   8   29.00    2.10
   5   0  -7  116.50    4.10
  -5   0   7  124.60    6.60
   5   0  -6    3.20    1.50
  -5   0   6    6.20    1.00
   5   0  -5   23.60    1.80
  -5   0   5   15.30    1.10
   5   0  -4   19.00    1.10
  -5   0   4   21.80    1.10
   5   0  -3   30.60    1.30
  -5   0   3   27.00    1.30
   5   0  -2   -0.70    0.80
  -5   0   2    1.60    0.60
   5   0  -1    3.80    0.60
  -5   0   1    4.00    0.60
   5   0   0    8.60    0.50
  -5   0   0    8.00    0.70
   5   0   1   13.10    0.60
  -5   0  -1    9.40    0.90
   5   0   2   18.90    0.60
  -5   0  -2   19.30    0.70
   5   0   3   39.60    0.90
  -5   0  -3   43.60    1.20
   5   0   4    2.60    0.40
  -5   0  -4    2.70    0.40
   5   0   5   11.60    0.50
  -5   0  -5   12.90    0.70
   5   0   6   31.20    0.90
  -5   0  -6   30.70    1.50
   5   0   7   19.10    0.70
  -5   0  -7   15.40    1.20
   5   0   8    1.80    1.00
  -5   0  -8   -0.90    0.60
   5   0   9    5.10    0.90
  -5   0  -9    1.30    0.70
   5   0  10   69.50    3.50
  -5   0 -10   72.30    2.20
   5   0  11    4.10    1.50
  -5   0 -11   -0.70    0.90
   5   0  12    6.60    1.90
  -5   0 -12    2.30    1.00
   5   0  13   11.00    1.80
  -5   0 -13    3.70    1.60
   5   0  14   11.00    2.10
  -5   0 -14   14.50    2.50
  -5   0 -15    2.60    2.20
  -5   0 -16   -0.30    2.40
  -5   0 -17    6.20    2.10
  -5   0 -18   15.00    3.20
   5   1 -17   -8.20    4.00
  -5  -1  17   -1.00    2.90
   5   1 -16    1.90    3.60
  -5  -1  16   -8.70    3.70
   5   1 -15   11.20    4.20
  -5  -1  15    8.30    4.00
   5   1 -14    3.60    3.60
  -5  -1  14   13.70    4.00
   5   1 -13    4.10    3.30
  -5  -1  13   -1.60    3.10
   5   1 -12   10.40    3.30
  -5  -1  12    8.00    3.50
   5   1 -11    3.40    1.80
  -5  -1  11   18.10    3.60
   5   1 -10   23.00    2.00
  -5  -1  10   10.10    2.50
   5   1  -9    3.00    1.40
  -5  -1   9    7.60    2.40
   5   1  -8    3.20    1.40
  -5  -1   8    3.10    1.00
   5   1  -7   14.40    1.90
  -5  -1   7   11.10    1.50
   5   1  -6   15.20    1.60
  -5  -1   6   12.00    1.10
   5   1  -5    4.80    1.50
  -5  -1   5    4.40    0.90
   5   1  -4    3.00    0.90
  -5  -1   4    1.20    0.80
   5   1  -3   36.30    1.40
  -5  -1   3   37.60    1.30
   5   1  -2   64.10    1.80
  -5  -1   2   63.50    1.70
   5   1  -1   11.30    0.90
  -5  -1   1    9.60    0.80
   5   1   0  102.70    2.50
  -5  -1   0  103.50    2.20
   5   1   1   10.70    0.70
  -5  -1  -1   11.00    1.10
   5   1   2   83.50    1.60
  -5  -1  -2   79.70    2.70
   5   1   3    7.80    0.50
  -5  -1  -3    5.70    0.90
   5   1   4  102.60    2.20
  -5  -1  -4  111.00    2.80
   5   1   5   21.80    0.80
  -5  -1  -5   22.20    1.30
   5   1   6   56.80    1.20
  -5  -1  -6   61.10    1.80
   5   1   7   51.60    1.70
  -5  -1  -7   56.90    1.80
   5   1   8   35.80    1.40
  -5  -1  -8   29.10    1.30
   5   1   9   40.90    1.80
  -5  -1  -9   40.30    1.60
   5   1  10   12.60    1.80
  -5  -1 -10   11.10    1.20
   5   1  11   -1.50    1.60
  -5  -1 -11   -0.50    1.00
   5   1  12   -0.50    1.10
  -5  -1 -12    1.60    1.00
   5   1  13   11.70    2.40
  -5  -1 -13   11.50    2.40
   5   1  14   19.60    2.70
  -5  -1 -14   12.80    2.60
   5   1  15    9.20    2.00
  -5  -1 -15    4.50    1.90
   5   1  16   -2.00    1.50
  -5  -1 -16    0.40    1.90
  -5  -1 -17   10.40    2.90
  -5  -1 -18   18.00    3.40
   5   2 -17    5.40    3.90
  -5  -2  17   -4.70    4.20
   5   2 -16    4.70    4.10
  -5  -2  16    7.80    4.40
   5   2 -15   -1.50    2.40
  -5  -2  15    2.70    2.60
   5   2 -14    8.60    2.80
  -5  -2  14    8.50    3.10
   5   2 -13    1.70    2.40
  -5  -2  13    2.10    2.70
   5   2 -12   11.40    2.00
  -5  -2  12    8.50    2.70
   5   2 -11    3.00    2.30
  -5  -2  11    4.30    3.30
   5   2 -10    2.50    3.00
  -5  -2  10    2.00    2.10
   5   2  -9   23.80    2.20
  -5  -2   9   26.90    2.70
   5   2  -8   10.70    2.00
  -5  -2   8   10.10    3.10
   5   2  -7   10.90    1.50
  -5  -2   7    9.50    1.30
   5   2  -6   -0.70    1.30
  -5  -2   6    2.30    1.00
   5   2  -5   40.80    2.10
  -5  -2   5   33.90    1.40
   5   2  -4    4.30    0.80
  -5  -2   4    5.80    0.90
   5   2  -3    3.10    0.80
  -5  -2   3    3.00    0.80
   5   2  -2   19.00    1.10
  -5  -2   2   22.90    1.40
   5   2  -1   10.20    0.80
  -5  -2   1    4.80    0.80
   5   2   0   46.90    1.60
  -5  -2   0   49.20    1.40
   5   2   1    4.50    0.60
  -5  -2  -1    2.70    0.60
   5   2   2   63.00    1.40
  -5  -2  -2   62.30    1.70
   5   2   3    6.30    0.60
  -5  -2  -3    5.10    0.60
   5   2   4   42.00    1.10
  -5  -2  -4   44.20    1.40
   5   2   5    3.00    0.60
  -5  -2  -5    1.30    0.70
   5   2   6   80.20    1.90
  -5  -2  -6   77.60    2.10
   5   2   7    2.20    0.60
  -5  -2  -7   -2.10    0.70
   5   2   8   -2.70    1.10
  -5  -2  -8    2.20    0.80
   5   2   9   94.20    3.40
  -5  -2  -9   77.00    2.20
   5   2  10   21.00    2.40
  -5  -2 -10   19.60    1.30
   5   2  11   -2.70    1.90
  -5  -2 -11   -0.40    1.10
   5   2  12   17.20    2.60
  -5  -2 -12   13.00    1.40
   5   2  13   21.80    2.60
  -5  -2 -13   25.10    2.60
   5   2  14    5.60    2.60
  -5  -2 -14    4.10    2.60
  -5  -2 -15   17.10    2.80
   5   2  16   10.80    3.10
  -5  -2 -16   14.80    3.10
  -5  -2 -17    3.50    2.80
  -5  -2 -18   -1.70    3.20
   5   3 -17    3.60    3.90
  -5  -3  17    3.20    4.10
   5   3 -16    1.30    3.90
  -5  -3  16   10.80    4.20
   5   3 -15   10.30    3.00
  -5  -3  15    6.30    3.00
   5   3 -14    4.40    2.60
  -5  -3  14    2.20    2.50
   5   3 -13    7.20    3.80
   5   3 -12    2.70    2.40
   5   3 -11   13.60    1.90
  -5  -3  11   21.00    3.10
   5   3 -10    2.00    1.80
   5   3  -9   10.70    1.80
  -5  -3   9    7.60    2.30
   5   3  -8    5.60    1.70
  -5  -3   8   -1.40    2.80
   5   3  -7   31.20    2.30
  -5  -3   7   16.80    1.50
   5   3  -6   -3.10    1.40
  -5  -3   6    5.80    1.20
   5   3  -5    3.10    1.70
  -5  -3   5    4.00    1.00
   5   3  -4    0.90    1.00
  -5  -3   4    4.40    0.90
   5   3  -3   32.30    1.30
  -5  -3   3   39.20    1.50
   5   3  -2    5.50    1.10
  -5  -3   2    3.10    0.90
   5   3  -1   35.50    1.40
  -5  -3   1   32.70    1.40
   5   3   0   12.40    1.30
  -5  -3   0   13.30    1.00
   5   3   1   66.00    1.60
  -5  -3  -1   60.90    1.50
   5   3   2   13.60    0.90
  -5  -3  -2   16.50    1.00
   5   3   3   26.30    0.90
  -5  -3  -3   24.60    1.10
   5   3   4   17.30    0.80
  -5  -3  -4   16.30    0.90
   5   3   5   42.20    1.10
  -5  -3  -5   42.00    1.50
   5   3   6   18.20    0.60
  -5  -3  -6   16.00    1.20
   5   3   7   54.50    2.10
  -5  -3  -7   55.10    1.90
   5   3   8   14.50    1.30
  -5  -3  -8   14.30    0.90
   5   3   9   16.80    1.60
  -5  -3  -9   12.90    1.10
   5   3  10    0.20    0.90
  -5  -3 -10    1.30    0.70
  -5  -3 -11    0.60    0.60
   5   3  12    3.50    1.80
  -5  -3 -12    0.10    0.90
   5   3  13    1.50    2.30
  -5  -3 -13   -3.10    2.40
   5   3  14   -2.00    1.70
  -5  -3 -14    0.70    2.10
   5   3  15    0.00    2.00
  -5  -3 -15   -4.80    1.80
   5   3  16    6.50    3.00
  -5  -3 -16    5.10    2.90
   5   3  17    5.20    3.00
  -5  -3 -17   12.10    3.60
  -5  -3 -18    9.20    3.40
   5   4 -17    3.10    2.50
  -5  -4  17   -3.00    2.70
   5   4 -16   11.70    4.40
  -5  -4  16    4.30    3.70
   5   4 -15    4.20    3.80
  -5  -4  15   -6.30    3.50
   5   4 -14   -0.80    2.60
  -5  -4  14    1.10    2.30
   5   4 -13    5.60    3.80
  -5  -4  13    7.90    3.50
   5   4 -12   -1.10    1.90
  -5  -4  12   11.90    2.60
   5   4 -11    4.60    2.40
  -5  -4  11   18.30    3.70
   5   4 -10   -1.80    1.50
  -5  -4  10   -5.10    2.10
   5   4  -9    1.90    1.80
  -5  -4   9    0.90    2.90
   5   4  -8   25.30    2.30
  -5  -4   8   27.10    3.40
   5   4  -7   25.10    2.80
  -5  -4   7   27.90    4.00
   5   4  -6   -1.30    1.90
  -5  -4   6    3.40    1.20
   5   4  -5    1.20    1.40
  -5  -4   5    1.00    1.00
   5   4  -4   36.30    1.50
  -5  -4   4   39.00    1.70
   5   4  -3    9.40    1.00
  -5  -4   3   12.10    1.00
   5   4  -2    6.60    0.90
  -5  -4   2    4.70    0.80
   5   4  -1    1.00    0.80
  -5  -4   1    2.00    0.70
   5   4   0   24.40    1.50
  -5  -4   0   28.90    1.30
   5   4   1   25.10    1.00
  -5  -4  -1   27.60    1.00
   5   4   2   13.00    0.80
  -5  -4  -2   11.70    0.80
   5   4   3    5.50    0.60
  -5  -4  -3    7.80    0.90
   5   4   4    8.70    0.60
  -5  -4  -4   10.80    1.10
   5   4   5    5.20    0.50
  -5  -4  -5    7.40    0.90
   5   4   6   41.90    1.30
  -5  -4  -6   44.80    1.70
   5   4   7    2.90    0.80
  -5  -4  -7   -0.40    1.00
   5   4   8    4.40    1.00
  -5  -4  -8    1.80    1.00
   5   4   9    1.80    1.00
  -5  -4  -9    0.30    0.60
   5   4  10    1.30    1.30
  -5  -4 -10   -1.00    0.90
   5   4  11   -5.50    2.30
  -5  -4 -11   -1.50    1.20
   5   4  12    0.00    2.60
  -5  -4 -12    0.30    1.10
   5   4  13   13.40    2.30
  -5  -4 -13    3.70    2.00
   5   4  14    8.00    3.10
  -5  -4 -14    3.50    2.80
  -5  -4 -15   -5.10    2.80
   5   4  16    6.00    2.30
  -5  -4 -16   10.30    2.80
   5   4  17    1.00    2.00
  -5  -4 -17    4.20    2.20
   5   4  18   -6.00    2.20
   5   5 -16   -4.20    2.90
  -5  -5  16    6.70    2.90
   5   5 -15    4.40    3.70
  -5  -5  15   -0.50    3.60
   5   5 -14   -1.60    3.70
  -5  -5  14    4.30    3.30
   5   5 -13   -4.40    2.50
  -5  -5  13    3.50    2.80
   5   5 -12   -1.60    1.90
  -5  -5  12   11.10    3.50
   5   5 -11   21.10    2.50
  -5  -5  11   23.30    3.70
   5   5 -10    7.70    1.80
  -5  -5  10   -2.10    2.30
   5   5  -9   -3.10    1.50
  -5  -5   9    0.10    2.00
   5   5  -8    2.70    1.70
  -5  -5   8    0.80    2.00
   5   5  -7   55.50    2.70
  -5  -5   7   53.70    3.70
   5   5  -6    6.50    2.00
  -5  -5   6    6.20    2.10
   5   5  -5   -0.60    1.80
  -5  -5   5   -1.40    2.60
   5   5  -4   -0.30    1.40
  -5  -5   4    2.60    1.10
   5   5  -3   31.70    2.00
  -5  -5   3   25.00    1.30
   5   5  -2    0.20    1.00
  -5  -5   2    3.10    0.90
   5   5  -1    4.80    1.00
  -5  -5   1    5.20    1.30
   5   5   0    3.30    0.70
  -5  -5   0    5.30    1.00
   5   5   1   25.10    1.10
  -5  -5  -1   27.40    1.10
   5   5   2    1.10    0.60
  -5  -5  -2    0.60    0.60
   5   5   3    8.10    0.60
  -5  -5  -3    7.80    0.60
   5   5   4   12.30    1.20
  -5  -5  -4   11.40    1.30
   5   5   5    2.30    0.80
  -5  -5  -5    0.10    0.80
   5   5   6    0.40    0.60
  -5  -5  -6    2.20    0.80
   5   5   7   20.10    1.10
  -5  -5  -7   18.30    1.30
   5   5   8    5.10    1.00
  -5  -5  -8    4.40    1.10
   5   5   9   12.90    1.10
  -5  -5  -9    9.70    1.70
   5   5  10   19.00    1.40
  -5  -5 -10   12.80    2.20
   5   5  11   11.60    2.60
  -5  -5 -11   14.60    1.20
   5   5  12   13.50    2.50
  -5  -5 -12    3.70    1.20
   5   5  13   28.30    4.00
  -5  -5 -13   21.90    3.40
   5   5  14    4.30    2.00
  -5  -5 -14    8.30    2.20
   5   5  15   10.80    2.50
  -5  -5 -15    1.70    2.00
  -5  -5 -16   -4.30    3.00
   5   5  17    7.50    3.20
  -5  -5 -17   15.50    3.80
   5   6 -16   15.20    4.80
  -5  -6  16   13.40    4.20
   5   6 -15    6.30    3.10
  -5  -6  15   -2.80    2.60
   5   6 -14    5.20    3.60
  -5  -6  14   15.10    4.20
   5   6 -13   -3.50    2.50
  -5  -6  13    1.10    2.30
   5   6 -12    4.10    2.50
  -5  -6  12    1.50    3.00
   5   6 -11   -2.10    1.70
  -5  -6  11    0.40    2.40
   5   6 -10    9.80    1.80
  -5  -6  10   14.60    2.70
   5   6  -9   14.10    2.50
  -5  -6   9   18.00    3.60
   5   6  -8   -1.20    2.10
  -5  -6   8    5.40    3.20
   5   6  -7   15.70    3.40
  -5  -6   7    1.20    2.00
   5   6  -6   14.30    2.10
  -5  -6   6    8.40    2.20
   5   6  -5   17.10    1.80
  -5  -6   5   16.40    3.10
   5   6  -4    1.40    1.60
  -5  -6   4   -0.50    1.90
   5   6  -3    4.70    1.60
  -5  -6   3    2.80    2.40
   5   6  -2   28.40    1.60
  -5  -6   2   30.10    1.50
   5   6  -1   14.20    1.20
  -5  -6   1    8.50    1.10
   5   6   0    1.30    1.00
  -5  -6   0    2.40    1.00
   5   6   1    7.00    0.70
  -5  -6  -1    6.40    0.90
   5   6   2    5.00    1.10
  -5  -6  -2    6.90    0.60
   5   6   3    2.20    0.70
  -5  -6  -3    2.60    1.30
   5   6   4    7.70    1.00
  -5  -6  -4   11.00    1.30
   5   6   5   17.10    1.30
  -5  -6  -5   16.60    1.70
   5   6   6    9.60    1.60
  -5  -6  -6    6.40    0.90
   5   6   7    4.90    1.40
  -5  -6  -7    2.40    1.30
   5   6   8   22.10    2.90
  -5  -6  -8   18.30    1.40
   5   6   9    2.20    0.60
  -5  -6  -9   12.10    2.90
   5   6  10    4.80    0.90
  -5  -6 -10    7.20    0.90
   5   6  11   -0.40    0.90
  -5  -6 -11    2.20    1.30
   5   6  12   31.20    3.40
  -5  -6 -12   26.60    1.90
   5   6  13   -1.10    2.10
  -5  -6 -13    5.00    1.50
   5   6  14    5.50    3.50
   5   6  15   -5.20    3.30
  -5  -6 -15   -1.20    3.10
   5   6  16    8.20    2.80
  -5  -6 -16   14.00    3.20
   5   6  17   13.20    3.00
  -5  -6 -17    3.50    2.40
   5   7 -15   25.00    4.30
  -5  -7  15   16.20    3.60
   5   7 -14   -8.30    3.60
  -5  -7  14    5.40    3.90
   5   7 -13    4.50    2.80
  -5  -7  13    4.40    2.90
   5   7 -12    2.40    1.90
  -5  -7  12   -1.50    2.30
   5   7 -11   19.90    2.80
  -5  -7  11   21.60    4.00
   5   7 -10    0.80    2.30
  -5  -7  10   -4.20    3.00
   5   7  -9    4.70    1.70
  -5  -7   9   -3.20    2.10
   5   7  -8    2.50    1.90
  -5  -7   8   10.10    2.40
   5   7  -7    0.30    3.10
  -5  -7   7    6.00    3.10
   5   7  -6    0.30    2.10
  -5  -7   6   14.00    3.20
   5   7  -5    4.80    1.50
  -5  -7   5    7.30    2.10
   5   7  -4    5.50    2.10
  -5  -7   4    4.10    2.70
   5   7  -3   -2.80    1.90
  -5  -7   3    2.10    1.80
   5   7  -2   -0.30    1.80
  -5  -7   2   -4.40    2.30
   5   7  -1    6.60    1.40
  -5  -7   1    6.70    1.30
   5   7   0   -1.60    1.40
  -5  -7   0   -1.20    0.90
   5   7   1    2.60    0.50
  -5  -7  -1   -3.90    1.40
   5   7   2   10.90    0.80
  -5  -7  -2    9.10    0.50
   5   7   3   -0.50    1.20
  -5  -7  -3    6.80    1.80
   5   7   4    0.70    1.10
  -5  -7  -4    5.40    2.60
   5   7   5   12.90    1.30
  -5  -7  -5   17.00    2.90
   5   7   6   13.90    1.40
  -5  -7  -6   14.90    3.10
   5   7   7    2.20    1.60
  -5  -7  -7    1.80    1.20
   5   7   8   11.20    2.10
  -5  -7  -8    4.30    1.10
   5   7   9   11.70    1.70
  -5  -7  -9   10.90    1.10
   5   7  10   12.40    2.80
  -5  -7 -10    6.20    1.40
   5   7  11    8.70    2.80
  -5  -7 -11    6.40    1.00
   5   7  12    4.40    3.60
  -5  -7 -12    3.90    1.70
   5   7  13   15.10    3.60
  -5  -7 -13    2.30    1.60
   5   7  14    7.70    2.50
  -5  -7 -14    2.00    1.20
   5   7  15   -2.50    2.30
  -5  -7 -15   -3.40    1.50
   5   7  16   -9.10    3.40
  -5  -7 -16    2.10    1.80
   5   8 -15   -5.10    2.60
  -5  -8  15   -7.40    2.80
   5   8 -14    4.30    4.00
  -5  -8  14   12.10    4.20
   5   8 -13   -8.00    3.70
  -5  -8  13   -8.20    3.40
   5   8 -12   14.50    2.70
  -5  -8  12   18.10    3.20
   5   8 -11   -4.90    2.00
  -5  -8  11    4.10    2.70
   5   8 -10    4.70    2.40
  -5  -8  10   -5.60    2.90
   5   8  -9   -1.30    1.80
  -5  -8   9   -1.10    3.10
   5   8  -8    6.80    2.00
  -5  -8   8    9.70    3.40
   5   8  -7   -3.90    2.00
  -5  -8   7    2.40    3.10
   5   8  -6    9.50    2.30
  -5  -8   6    2.90    2.80
   5   8  -5    1.40    1.80
  -5  -8   5    6.80    2.30
   5   8  -4    3.20    1.70
  -5  -8   4    8.30    2.30
   5   8  -3    6.20    1.70
   5   8  -2    2.60    1.60
  -5  -8   2    3.60    2.10
   5   8  -1    0.10    0.90
  -5  -8   1   -0.80    2.70
   5   8   0   -0.10    1.50
  -5  -8   0   -0.10    1.90
   5   8   1   12.30    1.00
  -5  -8  -1    4.20    2.00
   5   8   2    2.20    0.80
  -5  -8  -2    0.10    2.70
   5   8   3    1.90    1.70
  -5  -8  -3    0.00    2.50
   5   8   4    2.50    1.10
  -5  -8  -4   -0.20    2.70
   5   8   5    5.40    1.30
  -5  -8  -5   -0.40    2.80
   5   8   6    3.40    1.00
  -5  -8  -6   -1.10    1.50
   5   8   7    8.40    1.60
  -5  -8  -7    2.60    1.40
   5   8   8    2.80    1.60
  -5  -8  -8    4.50    1.50
   5   8   9    8.10    2.00
  -5  -8  -9    6.00    1.00
   5   8  10    0.10    1.40
  -5  -8 -10    2.20    1.00
   5   8  11    2.90    1.70
  -5  -8 -11    0.70    0.90
   5   8  12    2.60    2.40
  -5  -8 -12   -1.70    1.10
   5   8  13    6.00    2.70
  -5  -8 -13    0.80    1.10
   5   8  14   -3.50    3.50
  -5  -8 -14    2.20    1.50
  -5  -8 -15   10.30    3.50
   5   8  16    8.20    3.40
  -5  -8 -16   -4.10    2.40
   5   9 -14    3.70    3.70
  -5  -9  14    3.70    3.80
  -5  -9  13    1.50    2.80
   5   9 -12   12.40    3.30
  -5  -9  12    2.10    2.70
   5   9 -11   -1.80    1.80
  -5  -9  11   -0.60    3.60
   5   9 -10    0.00    2.40
   5   9  -9   -0.40    1.70
  -5  -9   9   -1.60    3.00
   5   9  -8   11.00    4.00
  -5  -9   8   -1.50    3.20
   5   9  -7   10.20    2.30
  -5  -9   7    9.30    3.30
   5   9  -6   -2.10    2.00
  -5  -9   6    2.70    3.30
   5   9  -5   -0.20    1.50
  -5  -9   5   -1.30    2.70
   5   9  -4   -0.50    1.00
  -5  -9   4    3.30    2.00
   5   9  -3   16.90    1.40
  -5  -9   3   17.90    2.40
   5   9  -2    4.70    1.10
  -5  -9   2    6.90    2.10
   5   9  -1    5.10    1.10
  -5  -9   1   12.00    2.90
   5   9   0    5.10    0.90
  -5  -9   0    8.10    3.00
   5   9   1    3.20    0.70
  -5  -9  -1    5.80    0.70
   5   9   2    4.10    1.60
  -5  -9  -2   -0.10    2.10
   5   9   3    4.60    1.50
  -5  -9  -3    2.90    2.30
   5   9   4   12.10    1.60
  -5  -9  -4   -0.50    3.00
   5   9   5    9.10    1.90
  -5  -9  -5   11.00    2.20
   5   9   6   -2.70    1.50
  -5  -9  -6   -2.30    1.70
   5   9   7    6.20    1.90
  -5  -9  -7   -2.80    1.40
   5   9   8    1.30    1.80
  -5  -9  -8    1.60    1.50
   5   9   9    3.50    1.60
  -5  -9  -9    3.70    2.20
   5   9  10    8.90    1.50
  -5  -9 -10    3.00    1.50
   5   9  11    5.20    1.80
  -5  -9 -11    3.40    2.30
   5   9  12    1.50    1.90
  -5  -9 -12   -7.50    3.10
   5   9  13    8.50    2.00
  -5  -9 -13    0.40    2.30
   5   9  14    5.10    1.80
  -5  -9 -14    8.70    3.60
   5   9  15    6.20    2.70
  -5  -9 -15   -2.60    2.30
   5  10 -12   14.10    4.10
  -5 -10  12   -3.70    3.30
   5  10 -11    1.20    3.70
  -5 -10  11    8.00    3.60
   5  10 -10    7.80    2.30
  -5 -10  10   11.80    2.70
   5  10  -9   -4.60    1.60
  -5 -10   9   -1.30    2.10
   5  10  -8   -2.50    1.80
  -5 -10   8    4.00    2.20
   5  10  -7   -2.10    1.60
  -5 -10   7    4.50    2.20
   5  10  -6    2.30    1.80
  -5 -10   6    7.80    2.20
   5  10  -5   -3.20    1.80
  -5 -10   5   -3.00    2.10
   5  10  -4    3.60    1.70
  -5 -10   4    2.30    2.10
   5  10  -3    0.70    1.00
  -5 -10   3    4.90    2.20
   5  10  -2    0.10    0.90
  -5 -10   2    3.20    2.20
   5  10  -1    8.70    3.40
  -5 -10   1   22.30    3.70
   5  10   0    1.10    2.00
  -5 -10   0   -0.40    2.80
   5  10   1    5.00    1.80
  -5 -10  -1   -6.80    3.00
   5  10   2   19.10    1.90
  -5 -10  -2   20.30    2.80
   5  10   3    2.10    1.50
  -5 -10  -3    8.60    2.50
   5  10   4    4.80    1.70
  -5 -10  -4    5.40    1.90
   5  10   5    1.60    1.70
  -5 -10  -5   12.00    3.30
   5  10   6   -2.20    1.50
  -5 -10  -6   -0.20    1.70
   5  10   7   -2.00    1.90
  -5 -10  -7    1.00    1.80
   5  10   8   12.10    2.10
  -5 -10  -8   11.40    2.20
   5  10   9    2.00    1.80
  -5 -10  -9   -3.80    2.30
   5  10  10    1.40    1.50
  -5 -10 -10    2.00    1.70
   5  10  11    1.10    1.80
  -5 -10 -11   -3.90    3.10
   5  10  12   -1.60    1.60
  -5 -10 -12    2.60    2.30
   5  10  13   19.70    4.70
  -5 -10 -13   11.80    3.50
   5  11 -11    2.40    2.70
  -5 -11  11    2.50    2.50
   5  11 -10    5.90    3.90
  -5 -11  10   -5.00    3.40
   5  11  -9   -5.10    4.10
  -5 -11   9   13.80    3.60
   5  11  -8    1.60    1.80
  -5 -11   8   -4.90    3.20
   5  11  -7    1.90    1.90
  -5 -11   7   10.90    2.70
   5  11  -6   -1.00    1.50
  -5 -11   6    2.50    2.00
   5  11  -5    8.60    1.80
  -5 -11   5   -4.60    2.30
   5  11  -4    0.00    1.70
  -5 -11   4    5.90    2.40
   5  11  -3    5.80    1.40
  -5 -11   3    0.00    2.20
   5  11  -2   19.00    2.00
  -5 -11   2   27.10    3.30
   5  11  -1    2.60    1.50
  -5 -11   1    1.60    1.90
   5  11   0    5.70    1.30
  -5 -11   0   12.10    2.70
   5  11   1   10.10    1.90
  -5 -11  -1    5.10    3.30
   5  11   2   18.50    1.90
  -5 -11  -2    9.80    3.30
   5  11   3    2.20    1.50
  -5 -11  -3    0.90    2.20
   5  11   4   11.70    1.80
  -5 -11  -4    4.70    2.00
   5  11   5    1.40    1.40
  -5 -11  -5    1.10    2.10
   5  11   6   -1.40    1.50
  -5 -11  -6    0.70    2.10
   5  11   7    0.00    1.40
  -5 -11  -7    0.60    1.60
   5  11   8    6.20    1.50
  -5 -11  -8    4.90    1.90
   5  11   9   -3.40    2.60
  -5 -11  -9    2.60    1.40
   5  11  10   -2.70    2.70
  -5 -11 -10    1.10    1.50
   5  11  11    0.30    2.70
  -5 -11 -11   -0.10    1.80
   5  11  12   -1.60    3.80
  -5 -11 -12    5.70    3.30
   5  12  -9   -5.40    3.70
   5  12  -8   24.50    4.80
  -5 -12   8    8.40    3.50
   5  12  -7   10.00    4.20
  -5 -12   7    1.80    2.90
   5  12  -6    5.30    1.70
  -5 -12   6    5.90    2.80
   5  12  -5    1.70    1.70
  -5 -12   5    0.30    2.30
   5  12  -4    1.30    1.20
  -5 -12   4    2.80    2.30
   5  12  -3   11.10    2.00
  -5 -12   3   10.00    3.10
   5  12  -2    7.70    1.90
  -5 -12   2    8.10    3.30
   5  12  -1   -2.20    1.60
  -5 -12   1    5.20    3.20
   5  12   0    6.10    1.50
  -5 -12   0    4.00    2.50
   5  12   1   -0.50    1.30
  -5 -12  -1    0.60    2.30
   5  12   4    5.40    3.70
  -5 -12  -4    0.70    1.90
   5  12   5    8.10    2.90
  -5 -12  -5    7.30    2.10
   5  12   6   -7.50    3.50
  -5 -12  -6    0.30    1.80
   5  12   7    8.50    4.30
  -5 -12  -7    3.20    2.50
   5  12   8   -2.90    4.10
  -5 -12  -8    4.30    2.40
   5  12   9    1.60    4.20
  -5 -12  -9   13.10    2.50
   5  12  10   -3.50    4.00
  -5 -12 -10    5.20    3.70
   5  13  -6    4.10    2.80
  -5 -13   6    1.70    2.20
   5  13  -5    1.40    3.60
  -5 -13   5    4.90    3.00
   5  13  -4    2.80    3.50
   5  13  -3    5.70    2.70
  -5 -13   3    5.20    2.30
   5  13  -2    4.70    2.70
  -5 -13   2   -3.20    2.30
   5  13  -1   13.10    4.20
  -5 -13   1    3.30    3.00
   5  13   0    4.70    3.60
  -5 -13   0    3.50    3.30
   5  13   1    1.10    2.60
  -5 -13  -1   -3.80    2.40
   5  13   2    9.80    3.80
  -5 -13  -2    1.90    3.50
   5  13   3   14.40    3.50
  -5 -13  -3    4.10    2.10
  -5 -13  -4   14.80    3.90
  -5 -13  -5    4.90    2.30
   5  13   6    6.50    2.90
  -5 -13  -6   -0.40    2.00
   5  13   7    8.20    3.20
  -5 -13  -7   -2.00    1.80
   6  -8  -5    1.50    2.90
  -6   8   5   17.20    2.00
   6  -8  -4   15.40    4.30
  -6   8   4   12.20    2.00
   6  -8  -3   10.90    4.50
  -6   8   3   19.80    2.10
   6  -8  -2    7.90    4.40
  -6   8   2    5.90    1.30
   6  -8  -1   30.10    4.90
   6  -8   0   73.60    4.00
   6  -8   1   30.30    3.60
   6  -8   2   65.80    4.00
   6  -8   3   12.50    3.10
   6  -8   4   17.00    2.70
   6  -8   5   19.90    5.10
   6  -8   6    7.00    2.00
   6  -8   7   16.90    3.00
   6  -8   8    1.40    2.90
   6  -7  -8  183.60   11.20
  -6   7   8  181.00    7.50
   6  -7  -7  670.30   32.40
  -6   7   7  588.10   20.10
   6  -7  -6  169.70   10.70
  -6   7   6  178.90    7.00
   6  -7  -5  464.40   23.00
  -6   7   5  461.10   16.00
   6  -7  -4  227.60   13.30
  -6   7   4  230.40   12.70
   6  -7  -3  573.30   26.90
  -6   7   3  547.40   18.60
   6  -7  -2  309.70   15.20
  -6   7   2  293.00   14.00
   6  -7  -1  668.30   26.80
  -6   7   1  650.20   16.50
   6  -7   1  670.30   19.20
   6  -7   2   85.10    6.80
   6  -7   3  724.40   19.30
   6  -7   4  144.80    8.00
   6  -7   5  451.00   15.80
   6  -7   6   35.70    3.60
   6  -7   7  575.70   20.30
   6  -7   8   85.20    6.10
   6  -7   9  451.50   21.90
  -6   7  -9  440.70   20.70
   6  -7  10  151.20    9.30
  -6   7 -10  156.00    9.00
  -6   6  10   46.50    4.40
  -6   6   9   63.70    3.80
  -6   6   8  403.30   14.20
  -6   6   7   54.40    3.40
  -6   6   6  820.40   21.30
   6  -6  -5   95.70    6.80
  -6   6   5   78.40    3.70
   6  -6  -4 1078.80   38.90
  -6   6   4 1074.80   27.20
   6  -6  -3  166.70    9.00
  -6   6   3  174.20    8.90
   6  -6  -2 2149.30   71.80
  -6   6   2 2132.70   50.00
   6  -6  -1  146.50   10.30
  -6   6   1  136.70    6.60
   6  -6   0 3177.40  106.30
  -6   6   0 3066.90   70.80
   6  -6   1  170.40   12.70
  -6   6  -1  120.70   13.00
   6  -6   2 3626.90   86.50
   6  -6   3  114.20    7.60
   6  -6   4 1933.60   38.70
   6  -6   5   42.40    5.30
   6  -6   6 1303.30   26.00
   6  -6   7   46.90    4.60
   6  -6   8  792.00   29.10
  -6   6  -8  866.20   32.10
   6  -6   9   25.50    3.60
  -6   6  -9   41.40    4.50
   6  -6  10  282.00   15.10
  -6   6 -10  375.70   17.90
   6  -6  11   38.00    3.70
  -6   6 -11   50.60    4.80
  -6   6 -12   31.90    3.90
  -6   5  12   39.20    3.20
  -6   5  11   67.00    3.90
  -6   5  10  137.30    6.00
  -6   5   9  452.50   15.50
  -6   5   8  209.10    7.00
  -6   5   7  772.80   20.60
  -6   5   6  190.70    6.60
  -6   5   5 1069.90   27.10
   6  -5  -4  297.00   11.70
  -6   5   4  349.10   10.90
   6  -5  -3  864.00   30.00
  -6   5   3  890.40   22.00
   6  -5  -2  296.00    8.90
  -6   5   2  286.00   10.10
   6  -5  -1 1602.20   38.80
  -6   5   1 1547.30   36.60
   6  -5   0  167.90    6.10
  -6   5   0  208.00    7.00
   6  -5   1 1706.10   41.30
  -6   5  -1 1669.00   58.20
   6  -5   2   90.80    6.20
  -6   5  -2   75.70   10.50
   6  -5   3 1403.10   28.60
   6  -5   4  184.40    7.10
   6  -5   5  828.70   17.30
   6  -5   6   43.00    4.40
   6  -5   7  925.10   24.30
  -6   5  -7  978.20   35.90
   6  -5   8  138.60    4.90
  -6   5  -8  130.90    6.70
   6  -5   9  782.30   29.30
  -6   5  -9  854.10   33.30
   6  -5  10  126.30    6.70
  -6   5 -10  155.40    8.40
   6  -5  11  276.80   14.30
  -6   5 -11  292.00   14.70
  -6   5 -12  132.40    8.60
  -6   5 -13  127.10    7.50
  -6   5 -14    3.10    3.60
  -6   4  13   76.50    5.20
   6  -4 -12   75.10    7.00
  -6   4  12   69.40    4.50
   6  -4 -11  218.20   13.10
  -6   4  11  217.10    9.60
   6  -4 -10  135.80    7.90
  -6   4  10  157.20    6.30
   6  -4  -9  307.40   14.50
  -6   4   9  366.00   10.70
   6  -4  -8  128.30    8.60
  -6   4   8  120.20    6.70
   6  -4  -7  150.10    4.80
  -6   4   7  151.50    5.40
   6  -4  -6  522.30   13.80
  -6   4   6  531.70   14.10
   6  -4  -5    2.10    0.90
  -6   4   5    6.90    1.60
   6  -4  -4  515.80   13.70
  -6   4   4  501.60   13.00
   6  -4  -3  103.40    3.40
  -6   4   3  106.40    3.00
   6  -4  -2 1011.20   25.00
  -6   4   2 1007.90   25.40
   6  -4  -1   33.80    1.10
  -6   4   1   39.90    1.40
   6  -4   0 1076.80   18.20
  -6   4   0 1069.30   21.00
   6  -4   1    6.90    1.20
  -6   4  -1    9.50    3.90
   6  -4   2 1222.00   30.00
  -6   4  -2 1218.90   43.20
   6  -4   3  167.70    4.40
   6  -4   4  856.20   18.00
   6  -4   5   16.80    1.60
   6  -4   6  518.40   14.30
  -6   4  -6  571.00   22.10
   6  -4   7   20.10    2.70
  -6   4  -7   14.50    3.10
   6  -4   8  276.90    8.60
  -6   4  -8  243.30   12.00
   6  -4   9  142.80    6.70
  -6   4  -9  128.40    7.00
   6  -4  10  148.80    6.30
  -6   4 -10  151.90    7.90
  -6   4 -11  292.00   12.60
  -6   4 -12   89.50    6.70
  -6   4 -13  149.20    8.80
  -6   4 -14  103.50    7.10
  -6   4 -15   71.50    5.90
   6  -3 -14    6.90    3.40
  -6   3  14    2.80    2.80
   6  -3 -13  436.90   21.60
  -6   3  13  436.80   15.70
  -6   3  12   27.80    4.20
   6  -3 -11  612.40   26.00
  -6   3  11  616.30   17.10
   6  -3 -10   25.80    4.50
  -6   3  10   43.50    3.70
   6  -3  -9  192.90    9.40
  -6   3   9  225.70    7.20
   6  -3  -8   53.90    4.10
  -6   3   8   86.80    4.90
   6  -3  -7   29.20    2.00
  -6   3   7   31.00    1.70
   6  -3  -6   36.40    2.30
  -6   3   6   34.20    1.80
   6  -3  -5    3.40    1.00
  -6   3   5    3.80    0.70
   6  -3  -4   16.80    1.40
  -6   3   4   12.80    0.90
   6  -3  -3   76.00    2.60
  -6   3   3   68.50    2.20
   6  -3  -2   26.90    1.20
  -6   3   2   33.90    1.90
   6  -3  -1  450.00    9.40
  -6   3   1  448.60   12.00
   6  -3   0    1.00    0.40
  -6   3   0    2.10    0.50
   6  -3   1  837.70   29.70
  -6   3  -1  809.10   29.80
   6  -3   2   10.50    1.50
  -6   3  -2    3.00    2.40
   6  -3   3  304.00    8.30
  -6   3  -3  291.00   12.30
   6  -3   4   20.10    1.70
   6  -3   5   14.60    1.30
   6  -3   6    5.70    1.60
  -6   3  -6    1.00    2.80
   6  -3   7   10.00    1.50
  -6   3  -7   16.10    2.80
   6  -3   8   14.90    2.40
  -6   3  -8   10.20    3.50
   6  -3   9   19.40    2.10
  -6   3  -9   23.00    3.00
   6  -3  10   10.80    1.80
  -6   3 -10   10.90    0.60
  -6   3 -11  450.40   12.20
  -6   3 -12   -2.30    1.00
  -6   3 -13  476.40   12.90
  -6   3 -14    0.70    1.10
  -6   3 -15  520.30   17.80
  -6   3 -16   -0.40    3.70
   6  -2 -15   67.60    8.10
  -6   2  15   49.30    3.90
   6  -2 -14  276.50   16.50
  -6   2  14  222.50    7.80
  -6   2  13  146.80    6.50
   6  -2 -12  302.50   14.20
  -6   2  12  300.00   10.10
   6  -2 -11  269.50   12.10
  -6   2  11  270.90    9.40
   6  -2 -10  329.60    9.20
  -6   2  10  342.30   10.20
   6  -2  -9  803.50   21.60
  -6   2   9  891.80   23.00
   6  -2  -8   61.10    2.90
  -6   2   8   58.90    2.90
   6  -2  -7  716.40   20.00
  -6   2   7  714.60   15.50
   6  -2  -6  105.60    4.10
  -6   2   6  120.50    3.00
   6  -2  -5  771.90   19.40
  -6   2   5  722.00   12.70
   6  -2  -4  360.80    9.70
  -6   2   4  330.30    6.40
   6  -2  -3  475.60   12.30
  -6   2   3  466.70    8.40
   6  -2  -2  137.20    3.50
  -6   2   2  143.00    3.60
   6  -2  -1  308.70    7.20
  -6   2   1  276.00    7.90
   6  -2   0    6.40    0.50
  -6   2   0    5.90    0.50
   6  -2   2    4.20    1.90
  -6   2  -2    8.80    3.20
   6  -2   3  433.60   12.20
  -6   2  -3  386.10   16.40
   6  -2   4  144.10    3.70
   6  -2   5  390.50   11.00
  -6   2  -5  374.20   16.80
   6  -2   6  258.80    8.10
  -6   2  -6  246.00   11.30
   6  -2   7  659.70   18.90
  -6   2  -7  607.90   25.30
   6  -2   8   16.30    2.10
  -6   2  -8   17.60    4.20
   6  -2   9  486.40    9.80
  -6   2  -9  499.50   10.10
   6  -2  10  137.50    5.70
  -6   2 -10  127.70    4.10
  -6   2 -11  561.10   15.10
  -6   2 -12  308.80    9.10
  -6   2 -13  179.80    5.70
  -6   2 -14  313.60    9.20
  -6   2 -15   86.50    4.10
  -6   2 -16  194.60    7.60
   6  -1 -15   81.90    7.50
  -6   1  15   75.70    6.90
   6  -1 -14   95.50    7.20
  -6   1  14   69.70    6.30
   6  -1 -13  415.00   20.70
  -6   1  13  456.30   22.00
   6  -1 -12  191.10   11.40
  -6   1  12  207.20   11.40
   6  -1 -11  521.80   14.00
  -6   1  11  555.00   20.50
   6  -1 -10  524.50   14.60
  -6   1  10  547.80   20.60
   6  -1  -9 1051.10   25.80
  -6   1   9 1006.30   24.70
   6  -1  -8  644.40   18.00
  -6   1   8  656.80   14.40
   6  -1  -7  916.80   22.70
  -6   1   7  833.60   16.70
   6  -1  -6  263.50    9.60
  -6   1   6  298.90    9.10
   6  -1  -5 1458.70   35.30
  -6   1   5 1381.50   23.80
   6  -1  -4  360.70   10.60
  -6   1   4  364.10    7.20
   6  -1  -3 1792.60   34.50
  -6   1   3 1807.00   30.80
   6  -1  -2  621.80   15.90
  -6   1   2  596.40   11.80
   6  -1  -1 1343.40   26.70
  -6   1   1 1410.20   33.60
   6  -1   0  349.60    9.10
  -6   1   0  358.10   14.00
   6  -1   1 1676.60   31.40
  -6   1  -1 1702.30   31.80
   6  -1   2  476.60   29.00
  -6   1  -2  428.50   28.70
   6  -1   3 1569.10   54.60
  -6   1  -3 1522.00   53.10
   6  -1   4  401.00   14.30
  -6   1  -4  394.20   26.20
   6  -1   5 1837.80   44.30
  -6   1  -5 1793.60   63.20
   6  -1   6  196.70   12.20
  -6   1  -6  158.00   16.10
   6  -1   7 1259.30   20.60
  -6   1  -7 1262.70   23.70
   6  -1   8  100.60    2.60
  -6   1  -8  103.80    2.80
   6  -1   9  910.40   18.00
  -6   1  -9  933.90   18.40
   6  -1  10  719.90   26.60
  -6   1 -10  756.10   19.40
   6  -1  11  735.10   28.40
  -6   1 -11  780.10   20.40
  -6   1 -12  214.00    6.60
  -6   1 -13  540.00   14.10
  -6   1 -14  133.80    4.80
  -6   1 -15  244.10    8.90
  -6   1 -16   10.00    1.90
  -6   1 -17  133.90    5.90
   6   0 -16   53.00    6.30
   6   0 -15   26.00    3.70
  -6   0  15   33.40    4.20
   6   0 -14   75.70    6.20
  -6   0  14   67.20    5.50
   6   0 -13   21.80    4.30
  -6   0  13   15.40    4.20
   6   0 -12  297.30   13.20
  -6   0  12  225.30   10.50
   6   0 -11   67.40    3.70
  -6   0  11   73.40    5.80
   6   0 -10  367.00   10.30
  -6   0  10  314.70   12.80
   6   0  -9   29.50    3.50
  -6   0   9   37.70    4.80
   6   0  -8 1594.50   38.10
  -6   0   8 1475.30   35.70
   6   0  -7  197.10    7.60
  -6   0   7  210.50    6.90
   6   0  -6 1557.20   37.10
  -6   0   6 1469.20   28.70
   6   0  -5  857.20   23.40
  -6   0   5  843.70   15.20
   6   0  -4 1945.10   45.80
  -6   0   4 1893.90   32.30
   6   0  -3  916.90   20.00
  -6   0   3  947.50   19.30
   6   0  -2 2287.80   43.40
  -6   0   2 2230.90   37.10
   6   0  -1  830.40   19.10
  -6   0   1  793.30   18.40
   6   0   0 3049.10   57.40
  -6   0   0 3076.20   71.10
   6   0   1   27.00    1.70
  -6   0  -1   30.90    2.00
   6   0   2 3241.80   52.90
  -6   0  -2 3318.50   61.10
   6   0   3    7.50    0.80
  -6   0  -3    6.70    0.60
   6   0   4 1656.10   27.20
  -6   0  -4 1701.20   31.80
   6   0   5   23.50    0.90
  -6   0  -5   25.40    0.90
   6   0   6 2052.80   33.40
  -6   0  -6 2064.40   39.30
   6   0   7  531.70    9.70
  -6   0  -7  536.90   11.70
   6   0   8 1608.80   30.20
  -6   0  -8 1721.00   40.60
   6   0   9   58.80    2.10
  -6   0  -9   56.20    2.60
   6   0  10 1217.10   41.80
  -6   0 -10 1204.70   24.10
   6   0  11   45.10    3.00
  -6   0 -11   54.70    2.70
   6   0  12  250.30   10.70
  -6   0 -12  245.20    7.30
  -6   0 -13   75.50    3.20
  -6   0 -14  173.20    5.70
  -6   0 -15   24.70    2.10
  -6   0 -16   36.30    2.60
  -6   0 -17   10.20    2.80
   6   1 -16    4.50    4.20
  -6  -1  16   -6.20    3.70
   6   1 -15  179.30   11.00
  -6  -1  15  177.00   10.90
   6   1 -14   59.80    5.80
  -6  -1  14   58.90    6.10
   6   1 -13  189.20   10.70
  -6  -1  13  167.70   10.60
   6   1 -12  130.10    5.90
  -6  -1  12  102.30    7.00
   6   1 -11  253.20    8.60
  -6  -1  11  242.10   12.00
   6   1 -10  426.10   12.40
  -6  -1  10  457.20   18.30
   6   1  -9  871.10   22.90
  -6  -1   9  894.30   31.80
   6   1  -8  622.40   16.20
  -6  -1   8  657.40   23.40
   6   1  -7 2109.60   50.40
  -6  -1   7 2039.50   47.90
   6   1  -6  907.20   22.30
  -6  -1   6  862.80   21.70
   6   1  -5 2019.50   48.20
  -6  -1   5 1806.40   60.80
   6   1  -4 1129.40   27.30
  -6  -1   4 1028.30   18.10
   6   1  -3 1856.20   36.00
  -6  -1   3 1816.70   30.90
   6   1  -2  374.90    8.10
  -6  -1   2  387.80    7.40
   6   1  -1 4584.70   85.40
  -6  -1   1 4474.80   72.50
   6   1   0  148.40    4.00
  -6  -1   0  150.30    4.20
   6   1   1 4523.10   73.60
  -6  -1  -1 4711.70  107.30
   6   1   2  214.70    7.00
  -6  -1  -2  204.70   13.50
   6   1   3 3076.70   45.10
  -6  -1  -3 3184.00   73.10
   6   1   4  418.40   10.10
  -6  -1  -4  408.60   14.70
   6   1   5 1069.20   16.70
  -6  -1  -5 1070.90   26.20
   6   1   6  817.90   17.30
  -6  -1  -6  842.60   25.90
   6   1   7 1375.00   20.80
  -6  -1  -7 1412.10   28.00
   6   1   8  722.00   17.90
  -6  -1  -8  751.70   15.40
   6   1   9 1262.40   44.00
  -6  -1  -9 1264.00   25.20
   6   1  10  543.60   20.90
  -6  -1 -10  538.80   11.80
   6   1  11  318.10   13.10
  -6  -1 -11  297.40    7.00
   6   1  12  328.10   13.00
  -6  -1 -12  338.50    9.70
   6   1  13  182.80    8.60
  -6  -1 -13  198.90    6.30
   6   1  14  105.20    6.00
  -6  -1 -14  123.70    4.50
  -6  -1 -15  226.90    6.80
  -6  -1 -16   36.10    3.70
  -6  -1 -17  205.60   11.70
   6   2 -16  535.10   26.20
  -6  -2  16  515.40   24.60
   6   2 -15  111.50    9.20
  -6  -2  15  109.80    8.50
   6   2 -14  573.90   27.70
  -6  -2  14  583.90   28.10
   6   2 -13  208.50   10.50
  -6  -2  13  242.90   11.60
   6   2 -12  501.10   13.80
  -6  -2  12  496.00   19.50
   6   2 -11  383.90   10.80
  -6  -2  11  365.50   15.40
   6   2 -10  616.60   16.20
  -6  -2  10  627.00   22.00
   6   2  -9 1062.50   26.90
  -6  -2   9 1108.10   39.30
   6   2  -8  529.30   14.50
  -6  -2   8  552.60   20.80
   6   2  -7  497.50   13.40
  -6  -2   7  470.40   12.40
   6   2  -6  562.40   14.60
  -6  -2   6  548.00   14.60
   6   2  -5  285.00    8.20
  -6  -2   5  278.30    7.90
   6   2  -4   27.70    2.10
  -6  -2   4   21.50    1.60
   6   2  -3  706.50   14.60
  -6  -2   3  684.60   12.40
   6   2  -2   78.50    2.40
  -6  -2   2   75.20    2.00
   6   2  -1  289.10    6.70
  -6  -2   1  278.90    5.50
   6   2   0  168.60    4.20
  -6  -2   0  157.30    3.40
   6   2   1   22.70    1.20
  -6  -2  -1   25.90    1.50
   6   2   2  188.60    3.50
  -6  -2  -2  186.30    4.10
   6   2   3  528.10    8.60
  -6  -2  -3  530.30   11.00
   6   2   4  289.70    5.10
  -6  -2  -4  302.00    6.50
   6   2   5  537.10    8.70
  -6  -2  -5  547.10   11.50
   6   2   6  271.60    5.50
  -6  -2  -6  270.00    6.10
   6   2   7  268.30    5.30
  -6  -2  -7  270.30    6.30
   6   2   8 1218.30   30.20
  -6  -2  -8 1214.00   24.90
   6   2   9  861.50   22.30
  -6  -2  -9  868.00   17.90
   6   2  10  811.40   30.10
  -6  -2 -10  839.00   17.50
   6   2  11  736.60   26.50
  -6  -2 -11  728.60   15.40
   6   2  12  566.20   21.40
  -6  -2 -12  582.10   15.10
   6   2  13  210.40    9.40
  -6  -2 -13  229.20    6.80
   6   2  14  489.50   20.00
  -6  -2 -14  499.30   13.40
  -6  -2 -15   98.40    4.10
  -6  -2 -16  299.90   15.10
  -6  -2 -18  281.90   14.80
   6   3 -16   44.70    7.00
  -6  -3  16   44.80    7.40
   6   3 -15  121.30    9.00
  -6  -3  15  117.10    8.60
   6   3 -14   27.50    7.00
  -6  -3  14   59.00    9.30
   6   3 -13   66.60    4.50
  -6  -3  13   59.20    6.30
   6   3 -12  117.10    6.90
  -6  -3  12  123.60    9.30
   6   3 -11   94.20    5.80
  -6  -3  11   73.10    7.10
   6   3 -10   36.60    5.20
  -6  -3  10   62.20    8.20
   6   3  -9  136.50    8.90
  -6  -3   9  187.40   12.70
   6   3  -8   59.10    4.70
  -6  -3   8   90.00    7.90
   6   3  -7   88.70    4.70
  -6  -3   7  116.30    6.90
   6   3  -6  279.90    8.80
  -6  -3   6  257.40    7.50
   6   3  -5  183.90    5.80
  -6  -3   5  160.60    5.00
   6   3  -4   79.00    3.20
  -6  -3   4   77.00    3.00
   6   3  -3  511.70   13.20
  -6  -3   3  474.00   12.30
   6   3  -2  119.70    3.20
  -6  -3   2  115.90    3.10
   6   3  -1  117.40    3.40
  -6  -3   1  135.80    4.00
   6   3   0   16.50    1.30
  -6  -3   0   15.50    1.40
   6   3   1  107.80    2.60
  -6  -3  -1  102.90    2.30
   6   3   2   39.40    2.20
  -6  -3  -2   24.50    2.40
   6   3   3   53.50    3.30
  -6  -3  -3   41.40    3.10
   6   3   4   21.60    1.60
  -6  -3  -4   25.50    2.10
   6   3   5   65.70    2.70
  -6  -3  -5   63.00    3.50
   6   3   6  235.90    4.20
  -6  -3  -6  240.80    5.80
   6   3   7   21.40    2.30
  -6  -3  -7   18.50    1.30
   6   3   8  216.20    7.60
  -6  -3  -8  203.30    6.20
   6   3   9   16.70    2.10
  -6  -3  -9   12.80    1.30
   6   3  10   -4.20    1.60
  -6  -3 -10    1.70    1.10
   6   3  11    7.20    1.30
  -6  -3 -11    9.60    1.40
   6   3  12   54.30    4.00
  -6  -3 -12   54.30    3.10
   6   3  13   83.90    5.00
  -6  -3 -13   83.70    3.60
   6   3  14   37.90    3.10
  -6  -3 -14   42.40    2.70
   6   3  15  120.80    6.80
  -6  -3 -15  115.60    4.50
  -6  -3 -16   29.10    2.70
  -6  -3 -17  212.00   12.60
  -6  -3 -18   -0.80    2.00
   6   4 -16   43.50    5.00
  -6  -4  16   48.90    5.20
   6   4 -15  154.80   10.50
  -6  -4  15  152.90   10.30
   6   4 -14  152.00   10.00
  -6  -4  14  140.80    9.50
   6   4 -13  413.80   11.90
  -6  -4  13  431.00   18.30
   6   4 -12  332.60    9.80
  -6  -4  12  371.20   15.10
   6   4 -11  412.10   12.00
  -6  -4  11  420.70   17.70
   6   4 -10  512.10   14.20
  -6  -4  10  515.60   19.40
   6   4  -9  860.80   23.20
  -6  -4   9  882.10   33.40
   6   4  -8  254.20    9.40
  -6  -4   8  263.50   12.70
   6   4  -7 1127.40   29.20
  -6  -4   7 1096.90   39.80
   6   4  -6  355.60   10.50
  -6  -4   6  328.90   13.60
   6   4  -5 1448.60   35.00
  -6  -4   5 1347.80   32.70
   6   4  -4 1475.30   36.10
  -6  -4   4 1413.80   34.30
   6   4  -3  621.60   16.80
  -6  -4   3  585.70   15.80
   6   4  -2  674.40   17.20
  -6  -4   2  642.90   16.20
   6   4  -1  834.30   40.50
  -6  -4   1  852.40   21.80
   6   4   0  568.60   12.30
  -6  -4   0  564.20   10.40
   6   4   1  760.00   22.90
  -6  -4  -1  666.70   26.40
   6   4   2  953.00   17.00
  -6  -4  -2  971.80   19.20
   6   4   3  530.80   18.70
  -6  -4  -3  498.40   19.90
   6   4   4 1858.60   25.60
  -6  -4  -4 1862.10   36.00
   6   4   5  628.50   10.60
  -6  -4  -5  632.10   18.00
   6   4   6 2263.30   37.10
  -6  -4  -6 2244.10   43.40
   6   4   7 1042.40   26.80
  -6  -4  -7 1106.80   29.10
   6   4   8  401.30   11.60
  -6  -4  -8  393.30    9.40
   6   4   9  830.50   32.00
  -6  -4  -9  725.90   15.40
   6   4  10  754.50   19.70
  -6  -4 -10  720.90   16.20
   6   4  11  565.70   15.40
  -6  -4 -11  567.50   13.10
   6   4  12  470.70   12.30
  -6  -4 -12  463.90   12.60
   6   4  13  380.60   15.70
  -6  -4 -13  392.40   10.90
   6   4  14  164.60    8.60
  -6  -4 -14  169.00    6.20
   6   4  15  208.90   10.50
  -6  -4 -15  199.10    6.90
   6   4  16   36.80    4.00
  -6  -4 -16   30.10    2.50
  -6  -4 -17   54.00    3.30
   6   5 -16    9.40    2.90
  -6  -5  16    1.60    3.30
   6   5 -15   -1.10    2.70
  -6  -5  15    3.30    2.60
   6   5 -14    7.90    3.90
  -6  -5  14    2.00    3.50
   6   5 -13   10.80    2.50
  -6  -5  13    1.00    2.50
   6   5 -12    5.90    4.40
  -6  -5  12   19.50    4.70
   6   5 -11  172.40    5.80
  -6  -5  11  173.60    9.10
   6   5 -10  152.80    6.40
  -6  -5  10  157.30    8.90
   6   5  -9  291.60    8.60
  -6  -5   9  287.00   12.50
   6   5  -8  441.70   15.90
  -6  -5   8  455.50   21.50
   6   5  -7  720.70   18.30
  -6  -5   7  717.10   26.90
   6   5  -6  340.00   11.90
  -6  -5   6  314.90   13.70
   6   5  -5 3054.70   71.80
  -6  -5   5 2933.00   98.00
   6   5  -4  608.30   23.60
  -6  -5   4  555.40   15.60
   6   5  -3 4964.10  114.40
  -6  -5   3 4697.00  109.90
   6   5  -2  619.60   17.70
  -6  -5   2  611.20   18.30
   6   5  -1 4620.50  106.40
  -6  -5   1 4395.80  103.10
   6   5   0  595.70   23.80
  -6  -5   0  515.80   19.20
   6   5   1 3601.70   69.00
  -6  -5  -1 3619.50   68.70
   6   5   2  563.70   15.80
  -6  -5  -2  452.90   19.60
   6   5   3 3944.30   64.10
  -6  -5  -3 3884.90   72.60
   6   5   4  246.70    6.20
  -6  -5  -4  241.00   15.40
   6   5   5 2592.60   50.30
  -6  -5  -5 2486.60   59.40
   6   5   6  169.20   14.30
  -6  -5  -6  161.60   19.70
   6   5   7 1051.60   18.00
  -6  -5  -7 1070.10   21.50
   6   5   8   78.10    4.10
  -6  -5  -8   83.50    3.40
   6   5   9   96.10    3.20
  -6  -5  -9  104.10    3.00
   6   5  10  266.50    8.10
  -6  -5 -10  264.30    8.20
   6   5  11  242.90    7.40
  -6  -5 -11  237.00    7.30
   6   5  12   20.30    2.80
  -6  -5 -12   16.10    1.80
   6   5  13   44.40    3.40
  -6  -5 -13   40.20    2.40
   6   5  14   33.80    3.70
  -6  -5 -14   25.60    3.20
   6   5  15   29.40    3.50
  -6  -5 -15   39.30    2.50
   6   5  16   -0.60    2.90
  -6  -5 -16    4.10    2.00
   6   5  17    5.30    3.10
  -6  -5 -17    1.30    2.20
   6   6 -15    7.80    4.10
  -6  -6  15   16.50    4.70
   6   6 -14   76.20    6.20
  -6  -6  14   58.00    5.60
   6   6 -13   39.40    4.70
  -6  -6  13   22.60    5.90
   6   6 -12  360.50   11.30
  -6  -6  12  331.50   15.30
   6   6 -11   35.00    5.30
  -6  -6  11   33.90    7.00
   6   6 -10  420.80   13.10
  -6  -6  10  459.40   18.30
   6   6  -9  115.90    9.00
  -6  -6   9  140.40   12.30
   6   6  -8  901.40   22.70
  -6  -6   8  868.30   32.90
   6   6  -7  175.80    8.40
  -6  -6   7  161.60    9.20
   6   6  -6 1191.00   30.10
  -6  -6   6 1148.40   39.80
   6   6  -5  482.80   13.80
  -6  -6   5  457.30   18.70
   6   6  -4 1306.90   32.30
  -6  -6   4 1377.50   48.10
   6   6  -3  452.80   13.40
  -6  -6   3  364.10   16.60
   6   6  -2 2206.10   53.20
  -6  -6   2 2007.50   49.10
   6   6  -1  290.20   11.70
  -6  -6   1  255.80   12.00
   6   6   0 1684.80   33.70
  -6  -6   0 1604.90   39.50
   6   6   1  133.70   11.00
  -6  -6  -1  154.40    8.80
   6   6   2 2375.40   39.90
  -6  -6  -2 2370.20   45.90
   6   6   3  223.60   11.10
  -6  -6  -3  179.00    9.40
   6   6   4 1927.60   39.30
  -6  -6  -4 1856.10   45.50
   6   6   5   94.70    9.10
  -6  -6  -5   45.60   11.80
   6   6   6 1801.20   35.40
  -6  -6  -6 1666.80   40.40
   6   6   7  193.10    6.60
  -6  -6  -7  200.40    8.50
   6   6   8 1275.40   31.90
  -6  -6  -8 1328.20   33.00
   6   6   9   11.10    1.00
  -6  -6  -9   16.20    2.10
   6   6  10  670.10   16.90
  -6  -6 -10  717.90   18.50
   6   6  11    3.80    2.60
  -6  -6 -11    1.10    1.30
   6   6  12  311.60   13.00
  -6  -6 -12  329.10    9.60
   6   6  13   22.10    3.70
  -6  -6 -13   16.20    2.20
   6   6  14  171.60    9.30
  -6  -6 -14  171.80    6.10
   6   6  15   21.30    4.10
  -6  -6 -15   39.80    3.00
   6   6  16   46.80    4.70
  -6  -6 -16   49.40    3.10
   6   6  17   20.10    4.20
  -6  -6 -17   14.30    2.40
   6   7 -15  364.70   19.80
  -6  -7  15  411.00   21.20
   6   7 -14  234.20   14.60
  -6  -7  14  243.50   14.50
   6   7 -13  538.30   19.00
  -6  -7  13  514.70   26.10
   6   7 -12  217.60    8.30
  -6  -7  12  251.90   12.60
   6   7 -11  544.90   15.50
  -6  -7  11  611.30   23.80
   6   7 -10  169.80    7.20
  -6  -7  10  190.90   10.40
   6   7  -9  787.20   21.10
  -6  -7   9  743.50   29.70
   6   7  -8  150.40    5.40
  -6  -7   8  186.90    9.20
   6   7  -7 1554.00   38.30
  -6  -7   7 1617.80   55.50
   6   7  -6  306.20    9.00
  -6  -7   6  289.90   11.80
   6   7  -5  583.60   15.30
  -6  -7   5  469.10   17.80
   6   7  -4  152.90    5.20
  -6  -7   4  148.30    7.30
   6   7  -3  736.20   19.60
  -6  -7   3  703.20   25.50
   6   7  -2   20.20    2.20
  -6  -7   2   13.20    2.90
   6   7  -1  892.40   22.90
  -6  -7   1  872.60   32.00
   6   7   0    5.40    1.60
  -6  -7   0    7.00    2.90
   6   7   1  956.20   17.40
  -6  -7  -1 1001.70   24.80
   6   7   2    3.70    0.90
  -6  -7  -2    5.80    0.80
   6   7   3  578.40   11.20
  -6  -7  -3  597.10   22.60
   6   7   4   62.50    2.60
  -6  -7  -4   70.00    5.70
   6   7   5  366.10    8.70
  -6  -7  -5  361.80   15.50
   6   7   6  289.80    7.20
  -6  -7  -6  322.40   13.70
   6   7   7  805.00   17.10
  -6  -7  -7  790.90   29.70
   6   7   8  310.40   12.00
  -6  -7  -8  308.60    8.70
   6   7   9 1378.10   34.00
  -6  -7  -9 1286.40   31.70
   6   7  10  179.50    6.00
  -6  -7 -10  202.10    6.40
   6   7  11  591.40   23.30
  -6  -7 -11  529.40   14.30
   6   7  12  167.70    8.80
  -6  -7 -12  152.10    5.20
   6   7  13  672.90   26.40
  -6  -7 -13  684.70   18.10
   6   7  14  167.80    9.90
  -6  -7 -14  141.20    6.00
   6   7  15  548.40   26.40
  -6  -7 -15  509.80   17.30
   6   7  16   35.60    4.30
  -6  -7 -16   45.50    3.20
   6   8 -14  440.80   23.30
  -6  -8  14  465.80   23.20
   6   8 -13   26.60    3.80
  -6  -8  13   48.50    7.80
   6   8 -12  331.80   12.10
  -6  -8  12  339.90   17.80
   6   8 -11   40.10    4.90
  -6  -8  11   37.00    7.80
   6   8 -10  311.00    9.40
  -6  -8  10  380.10   15.80
   6   8  -9   82.10    4.60
  -6  -8   9   85.50    6.20
   6   8  -8  496.50   14.10
  -6  -8   8  451.80   17.80
   6   8  -7   63.20    3.30
  -6  -8   7   59.40    4.20
   6   8  -6  201.90    6.70
  -6  -8   6  169.00    7.80
   6   8  -5    2.80    1.90
  -6  -8   5    5.50    2.00
   6   8  -4   11.30    1.90
  -6  -8   4    9.80    2.30
   6   8  -3  121.00    4.60
  -6  -8   3  128.00    6.60
   6   8  -2   14.70    1.90
  -6  -8   2   25.40    3.60
   6   8  -1   72.00    4.30
  -6  -8   1   62.80    6.50
   6   8   0    9.80    1.50
  -6  -8   0   -1.60    1.90
   6   8   1   91.80    6.00
  -6  -8  -1   76.70   11.60
   6   8   2   18.10    1.20
  -6  -8  -2   32.00    3.70
   6   8   3   70.20    4.20
  -6  -8  -3   72.70    6.70
   6   8   4   60.50    2.90
  -6  -8  -4   64.30    4.60
   6   8   5    5.70    1.20
  -6  -8  -5   13.10    3.20
   6   8   6    8.10    1.60
  -6  -8  -6    4.10    2.20
   6   8   7    1.70    1.00
  -6  -8  -7   11.90    3.40
   6   8   8  257.00    7.60
  -6  -8  -8  226.60   10.50
   6   8   9   30.80    2.90
  -6  -8  -9   20.90    3.60
   6   8  10  278.90    8.50
  -6  -8 -10  256.80    7.50
   6   8  11    9.10    2.40
  -6  -8 -11   13.90    1.80
   6   8  12  267.20    8.30
  -6  -8 -12  227.00    7.40
   6   8  13    3.70    2.80
  -6  -8 -13    5.40    1.60
   6   8  14  471.50   24.10
  -6  -8 -14  427.50   15.40
   6   8  15   24.80    3.80
  -6  -8 -15   18.50    2.20
   6   9 -13  199.50   11.50
  -6  -9  13  219.60   13.10
   6   9 -12  183.20    7.60
  -6  -9  12  160.00   11.10
   6   9 -11  195.30    8.30
  -6  -9  11  196.00   11.20
   6   9 -10  158.30    6.10
  -6  -9  10  141.20    8.10
   6   9  -9  219.30    8.20
  -6  -9   9  243.20   12.30
   6   9  -8  150.40    5.80
  -6  -9   8  143.40    7.10
   6   9  -7   56.80    3.40
  -6  -9   7   69.60    5.70
   6   9  -6  586.70   15.60
  -6  -9   6  567.30   21.00
   6   9  -5    9.00    2.30
  -6  -9   5    9.10    3.30
   6   9  -4  162.80    5.50
  -6  -9   4  171.90    7.90
   6   9  -3   67.90    4.70
  -6  -9   3   69.50    4.80
   6   9  -2  180.40    7.80
  -6  -9   2  157.80   11.70
   6   9  -1   11.10    1.10
  -6  -9   1    3.70    2.40
   6   9   0  164.80    5.10
  -6  -9   0  143.30   14.10
   6   9   1    8.90    1.10
  -6  -9  -1   11.60    3.40
   6   9   2  148.40   11.60
  -6  -9  -2  122.70   15.70
   6   9   3   36.60    3.00
  -6  -9  -3   28.10    4.40
   6   9   4   62.10    7.30
  -6  -9  -4   44.60    9.00
   6   9   5   80.40    3.60
  -6  -9  -5   72.00    5.10
   6   9   6  322.10   15.40
  -6  -9  -6  326.20   14.90
   6   9   7  326.10    9.40
  -6  -9  -7  287.60   12.90
   6   9   8  125.70    4.90
  -6  -9  -8  142.50    7.60
   6   9   9  303.80    9.20
  -6  -9  -9  291.00   12.90
   6   9  10   28.00    2.70
  -6  -9 -10   10.70    3.90
   6   9  11  394.60   11.60
  -6  -9 -11  413.10   18.00
   6   9  12   66.70    3.70
  -6  -9 -12   58.30    5.10
   6   9  13  143.30    6.30
  -6  -9 -13  128.20    9.00
   6   9  14   94.10    4.70
  -6  -9 -14  103.30    7.10
   6  10 -12   81.40    7.50
  -6 -10  12   76.60    6.70
   6  10 -11    5.20    2.10
  -6 -10  11   10.30    3.20
   6  10 -10  254.10    9.70
  -6 -10  10  283.60   15.60
   6  10  -9   40.10    4.80
  -6 -10   9   72.80    7.90
   6  10  -8  372.80   11.00
  -6 -10   8  390.10   15.90
   6  10  -7  161.40    8.50
  -6 -10   7  148.10   10.00
   6  10  -6  724.40   19.10
  -6 -10   6  790.10   29.90
   6  10  -5  232.70    8.30
  -6 -10   5  227.00   10.40
   6  10  -4 1685.20   41.40
  -6 -10   4 1600.10   55.10
   6  10  -3  176.50    7.00
  -6 -10   3  167.90   10.20
   6  10  -2 1221.40   30.90
  -6 -10   2 1186.70   42.80
   6  10  -1  290.40   13.00
  -6 -10   1  244.40   19.40
   6  10   0 1249.90   31.10
  -6 -10   0 1212.10   43.30
   6  10   1  262.30   16.30
  -6 -10  -1  256.90   22.80
   6  10   2  836.10   21.60
  -6 -10  -2  834.50   32.10
   6  10   3  139.40   11.60
  -6 -10  -3  112.20   14.60
   6  10   4  689.60   18.20
  -6 -10  -4  754.90   29.10
   6  10   5   48.80    5.50
  -6 -10  -5   59.20    8.50
   6  10   6  441.40   12.80
  -6 -10  -6  452.40   19.30
   6  10   7   93.20    5.40
  -6 -10  -7  101.40    9.10
   6  10   8   57.90    3.10
  -6 -10  -8   73.10    5.80
   6  10   9   54.90    3.30
  -6 -10  -9   42.60    4.00
   6  10  10  136.90    5.90
  -6 -10 -10  115.60    8.10
   6  10  11   12.50    2.10
  -6 -10 -11    3.90    2.60
   6  10  12   83.60    4.40
  -6 -10 -12   95.60    7.00
   6  10  13   88.60    4.60
   6  11 -10    3.20    4.10
  -6 -11  10   27.40    4.80
   6  11  -9   49.30    5.00
  -6 -11   9   45.40    4.70
   6  11  -8   73.90    9.50
  -6 -11   8   66.70    7.10
   6  11  -7   99.30    4.90
  -6 -11   7  106.00    7.30
   6  11  -6  207.20    8.00
  -6 -11   6  231.60   10.90
   6  11  -5  441.10   12.50
  -6 -11   5  451.00   16.80
   6  11  -4  248.00    8.50
  -6 -11   4  235.10   11.00
   6  11  -3  827.40   21.80
  -6 -11   3  810.10   30.30
   6  11  -2  475.60   17.20
  -6 -11   2  422.60   24.20
   6  11  -1  751.70   19.20
  -6 -11   1  720.40   27.70
   6  11   0  550.90   23.60
  -6 -11   0  429.40   34.50
   6  11   1 1054.90   27.30
  -6 -11  -1 1075.90   39.50
   6  11   2  467.80   27.90
  -6 -11  -2  362.90   38.00
   6  11   3 1334.50   33.40
  -6 -11  -3 1358.00   50.40
   6  11   4   89.10    9.40
  -6 -11  -4   93.60   15.10
   6  11   5 1508.30   38.20
  -6 -11  -5 1435.80   54.90
   6  11   6   82.40    6.10
  -6 -11  -6   54.70    7.80
   6  11   7  614.30   16.40
  -6 -11  -7  675.10   26.20
   6  11   8   61.40    4.20
  -6 -11  -8   60.30    5.70
   6  11   9  261.60    9.90
  -6 -11  -9  270.80   14.10
   6  11  10   40.00    3.00
  -6 -11 -10   40.50    5.10
   6  11  11  103.60    9.00
  -6 -11 -11  132.50    8.40
   6  12  -8  324.00   18.50
  -6 -12   8  317.00   17.40
   6  12  -7  295.40   11.90
  -6 -12   7  324.20   18.70
   6  12  -6  647.30   21.80
  -6 -12   6  669.10   32.30
   6  12  -5  258.10   10.20
  -6 -12   5  280.30   14.60
   6  12  -4  974.30   31.70
  -6 -12   4  959.80   44.40
   6  12  -3  137.20    6.70
  -6 -12   3  121.80   10.00
   6  12  -2 1187.70   29.90
  -6 -12   2 1119.10   42.00
   6  12  -1   97.60    9.70
  -6 -12   1   95.10    9.70
   6  12   0  728.80   19.00
  -6 -12   0  762.80   29.30
   6  12   1   73.10    7.00
  -6 -12  -1   69.40   10.10
   6  12   2  697.20   18.00
  -6 -12  -2  710.00   26.50
   6  12   3   85.80    6.70
  -6 -12  -3   87.60    9.90
   6  12   4  585.60   19.10
  -6 -12  -4  690.00   32.30
   6  12   5  146.60    6.50
  -6 -12  -5  153.50   10.20
   6  12   6  261.60   14.60
  -6 -12  -6  292.60   16.50
   6  12   7  242.10   14.40
  -6 -12  -7  231.60   13.10
   6  12   8  198.10   11.80
  -6 -12  -8  207.10   11.30
   6  12   9   40.60    6.40
  -6 -12  -9   49.50    5.20
   6  13  -6   89.10    4.80
  -6 -13   6  107.70    7.90
   6  13  -5   75.40    3.80
  -6 -13   5   79.90    7.00
   6  13  -4   45.50    3.10
  -6 -13   4   41.20    4.40
   6  13  -3  100.90    4.80
  -6 -13   3  141.10    8.90
   6  13  -2   -7.40    3.80
  -6 -13   2   -2.50    3.20
   6  13  -1  155.00    9.20
  -6 -13   1  153.80    9.10
   6  13   0   13.80    4.20
  -6 -13   0   14.60    3.70
   6  13   1  160.50   10.30
  -6 -13  -1  155.40    9.90
   6  13   2   34.40    5.20
  -6 -13  -2   19.80    4.20
   6  13   3  293.00   16.00
  -6 -13  -3  265.40   15.00
   6  13   4    6.70    4.30
  -6 -13  -4    1.10    3.40
   6  13   5  219.50   12.00
  -6 -13  -5  237.50   14.70
   6  13   6   20.90    4.10
  -6 -13  -6   24.90    3.80
   7  -8   1   18.60    4.00
   7  -7  -5   -1.50    2.50
  -7   7   5    3.50    1.50
   7  -7  -4   13.80    4.20
  -7   7   4    7.30    1.40
   7  -7  -3    1.30    4.10
   7  -7  -2   -5.50    2.60
   7  -7  -1    0.80    2.40
  -7   7   1    8.40    2.80
   7  -7   0   14.90    3.80
  -7   7   0   -5.30    2.70
   7  -7   1    0.50    2.50
   7  -7   2   -0.30    2.60
   7  -7   3    1.10    1.90
   7  -7   4   -5.30    2.40
   7  -7   5    0.10    2.10
   7  -7   6   -0.70    2.50
   7  -7   7    4.50    1.80
   7  -7   8    2.80    3.00
  -7   6   8   -1.00    1.80
  -7   6   7   -4.60    2.20
   7  -6  -6    9.00    3.00
  -7   6   6    0.30    1.60
   7  -6  -5   18.50    4.60
  -7   6   5   11.40    1.90
   7  -6  -4    6.70    3.00
  -7   6   4    1.40    1.30
   7  -6  -3    1.50    2.60
  -7   6   3   11.40    1.90
   7  -6  -2   -5.30    2.30
  -7   6   2    1.00    1.30
   7  -6  -1   -3.20    2.40
  -7   6   1   -1.80    2.20
   7  -6   0    3.70    2.40
  -7   6   0    4.00    3.60
   7  -6   1    0.30    3.50
  -7   6  -1    9.30    2.80
   7  -6   2   -0.80    2.00
   7  -6   3   -5.20    2.30
   7  -6   4    0.50    1.80
   7  -6   5    2.70    1.60
   7  -6   6    2.50    1.80
   7  -6   7   12.70    2.30
   7  -6   8    3.90    2.00
   7  -6   9   -4.70    2.30
  -7   6 -10    2.20    3.40
  -7   5  10    3.60    2.00
  -7   5   9   -3.20    1.90
  -7   5   8    2.80    2.10
  -7   5   7   -3.70    2.10
  -7   5   6    6.80    1.70
  -7   5   5    2.50    1.70
  -7   5   4   24.00    1.80
  -7   5   3    6.60    1.50
   7  -5  -2   -9.50    3.30
   7  -5  -1    0.00    3.10
  -7   5   1    5.20    0.80
   7  -5   0   15.10    1.50
  -7   5   0   12.40    3.40
   7  -5   1    0.00    0.90
  -7   5  -1    0.90    3.90
   7  -5   2    3.70    1.30
  -7   5  -2   12.50    3.20
   7  -5   3   -2.60    1.50
   7  -5   4    4.70    1.30
   7  -5   5   -0.90    1.20
   7  -5   6   -1.40    1.30
   7  -5   7    2.80    1.50
   7  -5   8    0.00    2.00
   7  -5   9   -0.10    1.30
  -7   5  -9    4.20    3.40
   7  -5  10   -1.60    2.30
  -7   5 -10   -2.20    2.60
  -7   5 -11    3.40    2.70
  -7   5 -12   -1.60    3.40
  -7   4  11    0.80    1.60
  -7   4  10    1.10    2.40
  -7   4   9    5.80    2.30
  -7   4   8    3.40    1.70
   7  -4  -7    3.60    1.50
  -7   4   7    1.20    2.20
   7  -4  -6    1.20    1.60
  -7   4   6    3.40    1.80
   7  -4  -5    7.70    1.70
  -7   4   5   17.70    1.90
   7  -4  -4   -3.20    1.40
  -7   4   4    2.80    1.30
   7  -4  -3    0.80    1.20
  -7   4   3    5.90    1.50
   7  -4  -2    0.30    1.10
  -7   4   2   -0.30    1.00
   7  -4  -1   25.00    2.00
  -7   4   1   24.70    1.40
   7  -4   0    7.50    1.30
  -7   4   0    0.70    2.50
   7  -4   1    0.30    1.30
  -7   4  -1   -4.20    2.40
   7  -4   2    2.30    1.40
  -7   4  -2   -3.90    3.80
   7  -4   3   33.30    1.90
   7  -4   4    3.20    1.40
   7  -4   5    2.70    1.30
   7  -4   6    2.40    1.20
   7  -4   7    7.70    1.60
   7  -4   8   20.50    2.20
  -7   4  -8   17.10    3.70
   7  -4   9   20.30    2.50
  -7   4  -9   22.40    3.50
   7  -4  10   -0.20    1.80
  -7   4 -10    4.20    2.60
  -7   4 -11    1.10    2.70
  -7   4 -12   -1.20    3.70
  -7   4 -13    8.10    3.60
  -7   3  12   46.00    3.20
  -7   3  11    0.20    2.40
  -7   3  10    7.90    2.40
   7  -3  -9    6.90    2.00
  -7   3   9    0.70    1.80
   7  -3  -8   22.20    1.70
  -7   3   8   21.30    2.10
   7  -3  -7   -0.40    1.10
  -7   3   7   -2.30    1.80
   7  -3  -6   16.90    1.50
  -7   3   6   23.60    2.10
   7  -3  -5   -1.10    1.00
  -7   3   5   -0.40    1.80
   7  -3  -4    0.90    0.90
  -7   3   4    1.90    1.60
   7  -3  -3    0.40    0.80
  -7   3   3   -5.90    2.40
   7  -3  -2   13.50    1.00
  -7   3   2    8.90    1.00
   7  -3  -1    0.80    0.50
  -7   3   1    1.30    0.60
   7  -3   0    8.00    0.40
  -7   3   0    8.30    0.40
  -7   3  -1   -1.90    3.70
   7  -3   2    2.60    1.30
  -7   3  -2    1.60    2.40
   7  -3   3    5.30    1.20
  -7   3  -3    1.20    2.50
   7  -3   4   25.40    2.30
   7  -3   5    2.40    1.40
   7  -3   6    8.80    1.60
   7  -3   7   13.10    1.90
  -7   3  -7   10.90    2.80
   7  -3   8   36.40    2.50
  -7   3  -8   44.50    4.40
   7  -3   9    2.40    1.70
  -7   3  -9    1.80    2.50
   7  -3  10    2.40    1.60
  -7   3 -10    0.90    2.50
  -7   3 -11   25.30    2.90
  -7   3 -12   10.40    3.70
  -7   3 -13    7.10    3.80
  -7   3 -14    7.30    3.20
   7  -2 -13   17.30    3.80
  -7   2  13   12.40    3.00
   7  -2 -12   15.00    3.00
  -7   2  12    9.60    1.60
   7  -2 -11   14.00    3.80
  -7   2  11   31.30    3.10
   7  -2 -10    2.40    1.70
  -7   2  10    3.90    2.00
   7  -2  -9    4.90    1.30
  -7   2   9    4.50    1.60
   7  -2  -8    0.10    1.00
  -7   2   8    1.40    1.70
   7  -2  -7   44.90    2.40
  -7   2   7   47.40    2.70
   7  -2  -6    5.00    1.20
  -7   2   6    1.40    1.20
   7  -2  -5    1.70    1.20
  -7   2   5    4.30    1.60
   7  -2  -4   16.20    1.30
  -7   2   4   17.50    1.30
   7  -2  -3   22.20    1.40
  -7   2   3   17.10    1.00
   7  -2  -2   19.80    1.40
  -7   2   2   21.60    1.70
   7  -2  -1    5.00    0.90
  -7   2   1    1.70    0.90
   7  -2   0   17.90    1.00
  -7   2   0   14.10    0.70
   7  -2   1    6.70    2.00
  -7   2  -1    6.70    3.50
   7  -2   2   14.40    2.40
  -7   2  -2   13.40    2.70
   7  -2   3    7.70    1.60
  -7   2  -3    7.60    2.80
   7  -2   4   18.90    1.60
  -7   2  -4   26.20    3.20
   7  -2   5   -0.80    1.10
   7  -2   6    2.00    1.70
   7  -2   7   -0.20    1.30
   7  -2   8    0.00    1.40
  -7   2  -8   -0.40    3.20
   7  -2   9   10.60    1.60
  -7   2  -9    7.90    3.60
   7  -2  10   39.50    2.60
  -7   2 -10   39.00    4.70
  -7   2 -11   -5.70    3.50
  -7   2 -12    3.30    3.10
  -7   2 -13   13.80    3.00
  -7   2 -14    8.60    3.80
  -7   2 -15    1.20    2.40
   7  -1 -14    8.30    2.70
  -7   1  14    7.90    2.30
   7  -1 -13   11.20    3.70
  -7   1  13   17.50    3.10
   7  -1 -12    8.60    2.70
  -7   1  12    2.00    2.50
   7  -1 -11   -1.40    2.00
  -7   1  11   -3.00    2.00
   7  -1 -10    1.40    1.50
  -7   1  10   -3.90    1.90
   7  -1  -9    3.20    1.90
  -7   1   9    7.40    2.40
   7  -1  -8   24.40    1.80
  -7   1   8   16.40    2.20
   7  -1  -7   -3.70    1.50
  -7   1   7    1.20    2.10
   7  -1  -6    2.40    1.30
  -7   1   6    9.00    1.70
   7  -1  -5   -0.20    1.00
  -7   1   5    2.70    1.10
   7  -1  -4   29.80    1.70
  -7   1   4   34.20    1.60
   7  -1  -3    6.80    1.10
  -7   1   3    7.30    1.40
   7  -1  -2    5.20    1.10
  -7   1   2    6.50    0.70
   7  -1  -1    1.20    0.60
  -7   1   1   -8.70    3.00
   7  -1   0    8.50    0.60
  -7   1   0    8.60    0.70
   7  -1   1    2.70    0.40
  -7   1  -1    2.10    0.30
   7  -1   2    7.20    2.40
  -7   1  -2   17.90    3.90
   7  -1   3   -6.00    2.30
  -7   1  -3    5.50    2.30
   7  -1   4   -2.40    1.40
   7  -1   5   12.80    1.30
   7  -1   6    0.20    2.00
  -7   1  -6   -0.90    2.00
   7  -1   7   35.00    2.00
  -7   1  -7   44.00    4.40
   7  -1   8    4.60    1.20
  -7   1  -8    2.90    2.40
   7  -1   9    8.60    1.30
  -7   1  -9    8.30    0.40
  -7   1 -10    7.90    1.00
  -7   1 -11    1.20    0.70
  -7   1 -12    0.40    0.90
  -7   1 -13    5.90    3.60
  -7   1 -14    0.70    1.40
  -7   1 -15    5.70    1.50
  -7   1 -16    0.40    1.20
   7   0 -14   12.00    3.90
  -7   0  14   17.70    4.20
   7   0 -13   -1.70    2.30
  -7   0  13    1.20    2.80
   7   0 -12   10.60    2.00
  -7   0  12   15.90    2.90
   7   0 -11    1.10    2.10
  -7   0  11    2.70    2.90
   7   0 -10    9.90    2.10
  -7   0  10   10.60    3.20
   7   0  -9   13.20    1.80
  -7   0   9   14.40    2.20
   7   0  -8   18.80    1.80
  -7   0   8   23.00    2.20
   7   0  -7   18.10    1.90
  -7   0   7   13.20    1.30
   7   0  -6    1.10    2.40
  -7   0   6   -1.80    1.00
   7   0  -5   15.20    1.50
  -7   0   5   10.30    1.30
   7   0  -4   24.90    2.00
  -7   0   4   27.00    1.50
   7   0  -3    3.60    1.70
  -7   0   3    5.30    1.00
   7   0  -2    3.10    1.10
  -7   0   2    2.80    0.80
   7   0  -1    1.40    0.60
  -7   0   1    0.40    0.70
   7   0   0    6.50    0.70
  -7   0   0    6.50    1.10
   7   0   1    8.30    0.60
  -7   0  -1   10.10    0.70
   7   0   2    5.30    0.50
  -7   0  -2    3.20    0.50
   7   0   3    0.80    0.30
  -7   0  -3    0.70    0.30
   7   0   4   -2.60    1.70
  -7   0  -4    9.60    3.00
   7   0   5   12.30    2.00
   7   0   6    1.80    0.30
  -7   0  -6    1.60    0.30
   7   0   7    0.90    0.40
  -7   0  -7   -0.40    0.40
   7   0   8    3.40    0.70
  -7   0  -8   -0.20    0.50
   7   0   9   11.50    0.70
  -7   0  -9   12.40    0.80
   7   0  10    5.80    1.10
  -7   0 -10    4.80    1.00
  -7   0 -11    1.30    1.00
  -7   0 -12    2.60    1.30
  -7   0 -13    0.40    2.40
  -7   0 -14   -3.00    1.30
  -7   0 -15    0.70    1.40
  -7   0 -16    9.60    1.90
   7   1 -15   -1.20    2.50
  -7  -1  15    4.60    2.70
   7   1 -14   -4.30    2.30
  -7  -1  14    6.60    2.90
   7   1 -13   10.70    2.10
  -7  -1  13   31.30    4.60
   7   1 -12   -4.10    2.10
  -7  -1  12    9.90    3.90
   7   1 -11    5.20    2.10
  -7  -1  11   10.90    3.40
   7   1 -10   -0.90    2.10
  -7  -1  10    6.50    3.40
   7   1  -9   39.20    2.70
  -7  -1   9   43.20    4.00
   7   1  -8    2.40    1.90
  -7  -1   8    7.50    2.90
   7   1  -7    0.10    1.50
  -7  -1   7    6.60    2.80
   7   1  -6    1.40    2.20
  -7  -1   6    0.60    0.90
   7   1  -5  105.50    3.70
  -7  -1   5  101.60    3.70
   7   1  -4   35.20    2.10
  -7  -1   4   29.10    1.70
   7   1  -3   10.90    1.50
  -7  -1   3   11.90    1.30
   7   1  -2    2.30    1.20
  -7  -1   2    6.80    1.30
   7   1  -1   32.10    1.30
  -7  -1   1   35.10    1.40
   7   1   0   13.90    0.90
  -7  -1   0   19.90    1.10
   7   1   1    5.70    0.70
  -7  -1  -1    7.10    1.10
   7   1   2    2.10    0.50
  -7  -1  -2    2.40    0.90
   7   1   3    1.20    0.50
  -7  -1  -3    1.60    0.80
   7   1   4   15.80    0.80
  -7  -1  -4   18.10    1.10
   7   1   5    0.10    0.50
  -7  -1  -5    1.60    1.00
   7   1   6   10.60    0.70
  -7  -1  -6   11.70    1.10
   7   1   7   38.80    1.10
  -7  -1  -7   35.00    1.80
   7   1   8    1.30    0.50
  -7  -1  -8    1.40    1.00
   7   1   9    3.80    1.30
  -7  -1  -9    3.20    0.80
   7   1  10    5.80    1.50
  -7  -1 -10   -1.60    1.10
   7   1  11   -2.50    1.30
  -7  -1 -11    2.70    1.40
  -7  -1 -12   -0.70    1.40
  -7  -1 -13   -4.60    1.50
  -7  -1 -14    2.40    1.50
  -7  -1 -15    3.50    1.70
  -7  -1 -16    1.70    1.60
  -7  -1 -17    1.90    1.60
   7   2 -15   14.50    3.20
  -7  -2  15    7.60    3.00
   7   2 -14    6.30    3.30
  -7  -2  14    0.20    2.30
   7   2 -13    1.80    2.30
  -7  -2  13    6.20    2.80
   7   2 -12   -0.40    2.40
  -7  -2  12   -2.30    3.40
   7   2 -11   20.60    2.50
  -7  -2  11   10.00    4.00
   7   2 -10   33.30    2.50
  -7  -2  10   35.80    4.10
   7   2  -9   -1.10    1.60
  -7  -2   9    8.20    3.30
   7   2  -8   -4.40    1.50
  -7  -2   8    1.80    2.00
   7   2  -7   30.10    2.40
   7   2  -6   89.50    3.50
  -7  -2   6   85.10    4.70
   7   2  -5    5.00    1.80
  -7  -2   5    4.40    1.00
   7   2  -4    2.90    1.10
  -7  -2   4    7.30    1.60
   7   2  -3    3.10    1.30
  -7  -2   3    3.70    0.80
   7   2  -2    6.80    1.20
  -7  -2   2    6.30    0.90
   7   2  -1    6.00    1.30
  -7  -2   1    9.60    1.10
   7   2   0    2.60    0.70
  -7  -2   0    0.50    0.90
   7   2   1   20.10    1.10
  -7  -2  -1   18.40    1.10
   7   2   2    4.60    2.50
  -7  -2  -2    0.20    0.70
   7   2   3    4.70    0.60
  -7  -2  -3    2.20    0.70
   7   2   4    8.70    0.80
  -7  -2  -4   12.10    0.90
   7   2   5   18.60    0.90
  -7  -2  -5   18.90    1.10
   7   2   6   37.90    1.20
  -7  -2  -6   36.50    1.50
   7   2   7    5.10    0.60
  -7  -2  -7    5.30    0.90
   7   2   8    0.00    1.30
  -7  -2  -8    4.10    0.90
   7   2   9   29.90    2.50
  -7  -2  -9   28.10    1.40
   7   2  10    3.90    1.30
  -7  -2 -10   -1.20    1.00
   7   2  11   14.10    2.00
  -7  -2 -11    8.10    1.60
   7   2  12   -1.70    1.60
  -7  -2 -12    3.50    1.60
  -7  -2 -13    4.60    1.70
  -7  -2 -14   12.80    1.80
  -7  -2 -15    1.70    1.70
  -7  -2 -16    0.90    1.80
  -7  -2 -17    0.70    1.50
   7   3 -15   -3.80    2.70
  -7  -3  15    8.30    2.90
   7   3 -14    2.00    3.70
  -7  -3  14    5.50    4.10
   7   3 -13   -1.40    2.30
  -7  -3  13   -3.20    3.50
   7   3 -12   13.00    2.20
  -7  -3  12   16.50    3.70
   7   3 -11    0.10    1.80
  -7  -3  11   -0.90    2.00
   7   3 -10    5.30    2.10
  -7  -3  10    5.90    2.40
   7   3  -9    0.00    2.00
  -7  -3   9   10.70    3.30
   7   3  -8    4.00    1.70
  -7  -3   8    0.50    1.90
   7   3  -7   -0.10    1.60
  -7  -3   7    5.60    2.90
   7   3  -6   78.70    3.70
  -7  -3   6   56.60    3.00
   7   3  -5   10.20    1.60
  -7  -3   5    3.00    1.30
   7   3  -4    5.80    1.40
  -7  -3   4    2.80    0.90
   7   3  -3    2.20    1.20
  -7  -3   3    5.10    1.10
   7   3  -2   36.60    2.80
  -7  -3   2   30.30    1.50
   7   3  -1   21.40    1.70
  -7  -3   1   18.60    1.20
   7   3   0    0.80    1.10
  -7  -3   0    0.90    0.80
   7   3   1    7.30    1.00
  -7  -3  -1    2.80    0.90
   7   3   2    9.50    0.90
  -7  -3  -2    7.00    0.80
   7   3   3   11.40    0.90
  -7  -3  -3   16.20    1.00
   7   3   4   11.80    1.00
  -7  -3  -4   18.10    1.10
   7   3   5   41.50    1.90
  -7  -3  -5   41.70    1.90
   7   3   6   11.50    0.90
  -7  -3  -6   13.50    1.20
   7   3   7    4.90    0.30
  -7  -3  -7    1.00    0.80
   7   3   8  114.60    4.00
  -7  -3  -8  109.40    3.20
   7   3   9   40.00    2.00
  -7  -3  -9   50.90    2.30
   7   3  10   -0.20    1.20
  -7  -3 -10    0.10    0.90
   7   3  11   14.90    2.40
  -7  -3 -11    7.30    1.80
   7   3  12   30.70    2.90
  -7  -3 -12   29.50    2.40
   7   3  13   22.60    2.80
  -7  -3 -13   31.80    2.30
  -7  -3 -14    3.70    1.90
  -7  -3 -15    9.70    1.90
  -7  -3 -16    5.30    2.00
  -7  -3 -17    5.00    1.50
   7   4 -15   -1.90    2.60
  -7  -4  15    6.50    3.10
   7   4 -14   -0.50    2.10
  -7  -4  14   -3.10    2.50
   7   4 -13   11.80    2.80
  -7  -4  13    6.50    3.50
   7   4 -12   -1.60    1.90
  -7  -4  12   -1.50    2.60
   7   4 -11   12.30    1.90
  -7  -4  11   -0.40    2.30
   7   4 -10   12.40    2.30
  -7  -4  10   10.90    3.40
   7   4  -9    5.40    1.60
  -7  -4   9    5.30    2.10
   7   4  -8    9.60    2.20
  -7  -4   8    0.50    2.70
   7   4  -7   21.40    1.90
  -7  -4   7   29.50    3.40
   7   4  -6   11.50    2.50
  -7  -4   6    1.50    2.80
   7   4  -5   -1.00    1.50
  -7  -4   5    1.70    1.10
   7   4  -4   -1.10    1.50
  -7  -4   4    6.70    1.50
   7   4  -3    4.90    1.70
  -7  -4   3    6.50    1.40
   7   4  -2    4.20    1.40
  -7  -4   2    2.40    0.90
   7   4  -1    9.00    2.40
  -7  -4   1    9.30    1.10
   7   4   0   -2.30    1.60
  -7  -4   0   -1.30    0.70
   7   4   1    0.10    1.50
  -7  -4  -1    0.60    0.90
   7   4   2    3.80    1.40
  -7  -4  -2    0.20    0.70
   7   4   3    0.20    1.60
  -7  -4  -3    0.10    0.70
   7   4   4    0.60    1.20
  -7  -4  -4    5.90    1.20
   7   4   5   34.40    1.20
  -7  -4  -5   45.60    2.20
   7   4   6    1.80    0.80
  -7  -4  -6    0.80    0.80
   7   4   7   -0.60    0.50
  -7  -4  -7    0.20    1.00
   7   4   8    8.80    1.10
  -7  -4  -8   13.30    1.10
   7   4   9    3.50    1.10
  -7  -4  -9    2.00    0.80
   7   4  10   12.30    1.50
  -7  -4 -10   12.80    1.40
   7   4  11   -1.20    1.00
  -7  -4 -11   -1.60    1.20
   7   4  12   -0.30    1.60
  -7  -4 -12   -1.40    1.30
   7   4  13   -0.80    1.70
  -7  -4 -13    2.50    1.50
   7   4  14    8.60    2.70
  -7  -4 -14    4.30    2.00
  -7  -4 -15    1.60    1.60
  -7  -4 -16    6.20    1.80
  -7  -4 -17   18.30    2.50
   7   5 -15  -12.90    4.10
  -7  -5  15  -12.00    4.10
   7   5 -14    1.60    2.20
  -7  -5  14    4.30    2.90
   7   5 -13   13.70    2.50
  -7  -5  13   16.70    4.00
   7   5 -12   -1.60    1.80
  -7  -5  12    7.60    2.80
   7   5 -11   -1.10    1.70
  -7  -5  11   15.10    3.30
   7   5 -10    3.20    1.60
  -7  -5  10   -1.90    2.40
   7   5  -9    8.10    1.90
  -7  -5   9    9.40    3.40
   7   5  -8    4.40    1.90
  -7  -5   8   16.10    3.00
   7   5  -7    2.90    1.50
  -7  -5   7   -0.60    1.90
   7   5  -6   -0.40    2.10
  -7  -5   6   -4.00    2.70
   7   5  -5   10.30    2.10
  -7  -5   5    5.30    2.20
   7   5  -4    9.60    1.80
  -7  -5   4   12.30    2.00
   7   5  -3    1.10    1.30
  -7  -5   3    2.00    1.10
   7   5  -2    2.60    3.10
  -7  -5   2    3.90    1.10
   7   5  -1    6.70    2.00
  -7  -5   1    0.70    1.10
   7   5   0   -3.40    1.40
  -7  -5   0    5.40    2.00
   7   5   1    6.20    1.90
  -7  -5  -1    3.40    1.00
   7   5   2    0.90    1.50
  -7  -5  -2   -0.70    0.90
   7   5   3    1.40    1.40
  -7  -5  -3   -1.50    0.80
   7   5   4   10.00    1.00
  -7  -5  -4    9.60    1.00
   7   5   5    3.90    1.70
  -7  -5  -5    3.00    1.20
   7   5   6    6.40    1.00
  -7  -5  -6   -2.20    2.20
   7   5   7   24.30    1.00
  -7  -5  -7   24.90    1.70
   7   5   8   10.30    1.10
  -7  -5  -8   11.30    1.20
   7   5   9    3.40    1.00
  -7  -5  -9    2.60    0.90
   7   5  10   -0.70    1.80
  -7  -5 -10   -0.70    1.20
   7   5  11    8.20    2.70
  -7  -5 -11   -1.00    1.50
   7   5  12    4.00    2.90
  -7  -5 -12    7.20    1.60
   7   5  13    0.80    1.80
  -7  -5 -13    0.40    1.30
   7   5  14    2.20    2.00
  -7  -5 -14    7.60    1.70
   7   5  15    1.90    2.80
  -7  -5 -15    0.80    1.60
  -7  -5 -16    1.00    1.60
   7   6 -14    4.20    2.80
  -7  -6  14    4.20    4.00
   7   6 -13    1.10    1.80
  -7  -6  13   12.50    3.00
   7   6 -12   12.90    2.90
  -7  -6  12   13.10    3.70
   7   6 -11    6.50    1.80
  -7  -6  11   10.20    2.60
   7   6 -10   15.90    2.70
  -7  -6  10    5.30    3.00
   7   6  -9   11.20    2.40
  -7  -6   9    2.70    3.20
   7   6  -8   16.20    2.30
  -7  -6   8   26.40    3.30
   7   6  -7    1.20    1.80
  -7  -6   7   -0.50    2.00
   7   6  -6    2.50    1.80
  -7  -6   6    2.00    1.90
   7   6  -5    3.20    1.80
  -7  -6   5    9.90    2.30
   7   6  -4   16.40    2.00
  -7  -6   4   17.40    2.80
   7   6  -3    8.90    2.20
  -7  -6   3    0.90    2.60
   7   6  -2    3.90    2.00
  -7  -6   2    1.30    2.40
   7   6  -1    1.40    1.40
  -7  -6   1   -2.30    1.10
   7   6   0   10.20    2.00
  -7  -6   0    6.90    0.90
   7   6   1    2.00    1.10
  -7  -6  -1    1.60    0.90
   7   6   2    1.10    0.70
  -7  -6  -2   -0.80    0.90
   7   6   3    2.10    1.10
  -7  -6  -3    2.90    0.80
   7   6   4    2.20    0.70
  -7  -6  -4   -0.40    1.30
   7   6   5    7.90    1.20
  -7  -6  -5   12.00    2.70
   7   6   6    9.20    1.10
  -7  -6  -6    5.50    1.20
   7   6   7    1.60    0.90
  -7  -6  -7    5.80    1.40
   7   6   8    1.20    2.00
  -7  -6  -8    3.70    2.70
   7   6   9    7.70    0.90
  -7  -6  -9   13.10    1.60
   7   6  10   -0.60    1.60
  -7  -6 -10    2.00    1.40
   7   6  11   -0.10    2.80
  -7  -6 -11    2.20    1.50
   7   6  12   -8.10    2.70
  -7  -6 -12   -0.70    1.40
   7   6  13    2.70    2.50
  -7  -6 -13    2.40    1.40
   7   6  14    0.50    2.20
  -7  -6 -14    0.00    1.60
   7   6  15   16.60    3.90
  -7  -6 -15   -1.10    1.90
   7   6  16    6.70    2.40
  -7  -6 -16    0.00    1.80
   7   7 -14    4.40    2.10
  -7  -7  14    2.10    2.60
   7   7 -13   14.10    3.00
  -7  -7  13   12.70    3.90
   7   7 -12   -1.30    1.80
  -7  -7  12    2.30    2.70
   7   7 -11    7.30    2.70
   7   7 -10   15.00    2.50
  -7  -7  10   20.50    3.10
   7   7  -9    8.60    1.80
  -7  -7   9   11.40    2.90
   7   7  -8   10.70    2.20
   7   7  -7   17.10    3.60
  -7  -7   7    4.00    3.40
   7   7  -6    2.30    1.80
  -7  -7   6    8.20    3.20
   7   7  -5   34.80    2.50
  -7  -7   5   29.80    3.80
   7   7  -4   -0.40    1.80
  -7  -7   4   -4.00    2.80
   7   7  -3    7.80    1.80
  -7  -7   3   -3.40    2.00
   7   7  -2    2.60    1.80
  -7  -7   2    1.00    1.90
   7   7  -1    5.20    1.80
  -7  -7   1   11.30    3.00
   7   7   0    6.70    2.10
  -7  -7   0    2.80    1.30
   7   7   1    0.40    1.00
  -7  -7  -1    2.30    1.80
   7   7   2    0.30    0.80
  -7  -7  -2    3.00    0.90
   7   7   3    1.80    0.60
  -7  -7  -3    3.20    0.70
   7   7   4    5.00    1.30
  -7  -7  -4   12.70    3.20
   7   7   5   -2.80    1.20
  -7  -7  -5   12.60    3.20
   7   7   6    1.20    1.10
  -7  -7  -6   -2.30    2.60
   7   7   7    3.50    0.90
  -7  -7  -7    4.90    2.20
   7   7   8    4.10    2.20
  -7  -7  -8    0.90    2.90
   7   7   9    4.70    1.60
  -7  -7  -9    9.70    2.40
   7   7  10    4.30    1.80
  -7  -7 -10    3.70    1.40
   7   7  11   -0.60    2.20
  -7  -7 -11   -1.80    1.60
   7   7  12    5.40    2.10
  -7  -7 -12    0.90    1.70
   7   7  13   -3.00    2.10
  -7  -7 -13    5.30    1.70
   7   7  14    3.10    2.70
  -7  -7 -14   15.30    2.00
   7   7  15   -3.20    3.20
  -7  -7 -15    2.40    1.60
   7   8 -13   23.40    2.80
  -7  -8  13   11.60    4.50
   7   8 -12   11.10    3.00
  -7  -8  12   18.70    3.70
   7   8 -11    0.40    1.90
  -7  -8  11    2.40    2.60
   7   8 -10   14.30    2.40
  -7  -8  10    5.80    3.70
   7   8  -9   10.00    2.20
  -7  -8   9   15.00    2.80
   7   8  -8    3.50    1.80
  -7  -8   8   13.30    2.80
   7   8  -7   10.50    1.90
  -7  -8   7    5.00    2.60
   7   8  -6   18.20    2.20
  -7  -8   6   22.20    3.30
   7   8  -5    9.50    2.00
  -7  -8   5    7.00    2.20
   7   8  -4   14.10    1.80
  -7  -8   4   13.70    2.50
   7   8  -3    4.70    1.70
  -7  -8   3   -3.50    2.10
   7   8  -2    0.80    1.70
  -7  -8   2    7.90    2.30
   7   8  -1    3.10    2.10
  -7  -8   1    0.00    2.10
   7   8   0   -1.30    0.80
  -7  -8   0    2.50    2.90
   7   8   1    0.80    1.10
  -7  -8  -1    2.70    1.10
   7   8   2    3.80    1.10
  -7  -8  -2    0.10    0.60
   7   8   3    2.10    1.00
  -7  -8  -3   -2.60    2.80
   7   8   4    2.60    1.00
  -7  -8  -4   -3.20    2.90
   7   8   5    6.90    1.20
  -7  -8  -5    8.70    3.00
   7   8   6   16.00    1.40
  -7  -8  -6   25.10    3.00
   7   8   7   -0.30    0.90
  -7  -8  -7   -0.40    2.90
   7   8   8    5.00    2.00
  -7  -8  -8    8.00    2.50
   7   8   9    5.70    1.70
  -7  -8  -9   11.80    3.40
   7   8  10    7.90    2.30
  -7  -8 -10   11.70    3.50
   7   8  11    5.60    2.40
  -7  -8 -11   -1.40    1.50
   7   8  12    4.70    2.30
  -7  -8 -12    1.00    1.70
   7   8  13   -2.90    1.50
  -7  -8 -13    2.50    1.50
   7   8  14    8.00    2.30
  -7  -8 -14   12.40    2.10
   7   8  15    5.00    2.60
  -7  -8 -15    2.50    1.60
   7   9 -12   13.70    2.50
  -7  -9  12   23.40    4.50
   7   9 -11   18.70    3.90
  -7  -9  11    3.30    2.60
   7   9 -10   22.50    2.60
  -7  -9  10   15.80    3.90
   7   9  -9    7.40    2.20
  -7  -9   9   -4.90    2.40
   7   9  -8   10.70    2.30
  -7  -9   8    4.60    2.60
   7   9  -7    7.50    1.90
  -7  -9   7    4.70    2.70
   7   9  -6   10.10    2.10
  -7  -9   6   -0.10    3.20
   7   9  -5    2.30    2.20
  -7  -9   5    4.50    3.00
   7   9  -4    1.60    2.00
  -7  -9   4   -2.60    2.80
   7   9  -3    3.30    2.20
  -7  -9   3   11.00    3.40
   7   9  -2   -2.70    3.00
  -7  -9   2    8.40    3.40
   7   9  -1    0.10    1.80
  -7  -9   1    4.70    3.10
   7   9   0   -0.30    0.60
  -7  -9   0   -4.30    2.90
   7   9   1   -0.60    1.00
  -7  -9  -1    2.40    0.90
   7   9   2    0.70    2.10
  -7  -9  -2    3.90    3.10
   7   9   3   -3.50    3.50
  -7  -9  -3    2.80    2.90
   7   9   4   11.50    2.10
  -7  -9  -4   11.20    2.50
   7   9   5   -4.10    1.70
  -7  -9  -5    5.80    2.20
   7   9   6    1.60    2.10
  -7  -9  -6    2.60    3.50
   7   9   7   -1.00    1.50
  -7  -9  -7    3.10    2.60
   7   9   8   -0.70    1.90
  -7  -9  -8    0.20    2.50
   7   9   9   -0.50    1.70
  -7  -9  -9   -2.90    3.20
   7   9  10   -2.10    2.30
  -7  -9 -10    0.90    3.40
   7   9  11    0.70    2.30
   7   9  12   -5.90    2.30
  -7  -9 -12   -5.40    2.20
   7   9  13    5.80    2.20
  -7  -9 -13   11.60    3.00
   7   9  14   10.00    2.20
  -7  -9 -14   -6.70    3.30
   7  10 -11   -1.20    2.70
  -7 -10  11   -9.70    3.60
   7  10 -10    4.00    2.00
  -7 -10  10    1.50    3.50
   7  10  -9    5.20    2.20
  -7 -10   9   -1.20    2.40
   7  10  -8    1.20    2.10
  -7 -10   8    5.80    2.70
   7  10  -7    9.50    2.00
  -7 -10   7   -5.70    3.10
   7  10  -6   -0.50    2.20
  -7 -10   6   -5.90    3.20
   7  10  -5   -2.10    2.30
  -7 -10   5   -4.50    2.30
   7  10  -4    4.60    2.00
  -7 -10   4    1.10    2.30
   7  10  -3   -0.20    1.50
  -7 -10   3    7.20    2.50
   7  10  -2   -1.20    1.50
   7  10  -1    3.30    1.70
   7  10   0    9.20    1.80
  -7 -10   0   25.60    3.80
   7  10   1    2.20    1.60
  -7 -10  -1    1.20    3.10
   7  10   2    0.30    1.90
  -7 -10  -2   -1.20    3.20
   7  10   3    0.40    1.90
  -7 -10  -3   -0.30    2.00
   7  10   4    4.00    2.20
  -7 -10  -4    3.10    3.40
   7  10   5    8.70    1.80
  -7 -10  -5    3.80    2.60
   7  10   6   -2.20    1.70
  -7 -10  -6   10.50    3.50
   7  10   7   -3.90    1.80
  -7 -10  -7   -4.10    2.20
   7  10   8    2.70    1.90
  -7 -10  -8    5.30    3.60
   7  10   9   -4.50    4.00
  -7 -10  -9   -0.10    3.30
   7  10  10    2.80    1.70
  -7 -10 -10    0.40    4.70
   7  10  11    1.50    2.00
  -7 -10 -11   -3.90    3.40
   7  10  12    6.80    1.70
  -7 -10 -12    3.80    2.50
   7  10  13   -1.10    1.90
  -7 -10 -13    3.70    2.40
   7  11 -10    1.90    1.90
  -7 -11  10    0.20    2.30
   7  11  -9    0.90    2.50
  -7 -11   9    7.20    3.80
   7  11  -8    1.10    1.90
  -7 -11   8    6.90    3.70
   7  11  -7    4.40    2.00
  -7 -11   7   -1.90    2.10
   7  11  -6    3.40    1.60
  -7 -11   6    0.20    2.10
   7  11  -5    1.60    2.20
  -7 -11   5   14.50    3.70
   7  11  -4    0.60    2.00
  -7 -11   4   -8.40    3.20
   7  11  -3    0.90    1.80
  -7 -11   3   -6.40    2.30
   7  11  -2    4.40    1.70
  -7 -11   2    0.50    2.20
   7  11  -1    9.20    1.90
  -7 -11   1   19.80    3.20
   7  11   0    3.50    1.70
  -7 -11   0    0.20    3.10
   7  11   1   -1.00    1.50
  -7 -11  -1    9.80    2.70
   7  11   2    2.50    1.90
   7  11   3    3.80    2.50
  -7 -11  -3    4.40    3.60
   7  11   4    4.00    1.90
  -7 -11  -4    2.00    2.80
   7  11   5    4.50    2.20
  -7 -11  -5    6.50    3.40
   7  11   6    3.80    2.70
  -7 -11  -6    5.80    2.70
   7  11   7    9.40    1.70
  -7 -11  -7   11.00    2.80
   7  11   8    2.00    2.00
  -7 -11  -8    7.10    3.60
   7  11   9    3.20    1.90
  -7 -11  -9    5.70    3.50
   7  11  10    1.20    2.10
  -7 -11 -10    5.80    3.50
   7  11  11   -2.90    1.90
  -7 -11 -11    4.10    2.60
   7  12  -8    3.10    2.50
  -7 -12   8   -0.80    3.80
   7  12  -7   -2.10    1.80
  -7 -12   7    7.90    3.70
   7  12  -6   -0.60    2.00
  -7 -12   6   -3.70    2.60
   7  12  -5    1.70    1.70
  -7 -12   5   -0.70    3.10
   7  12  -4    7.30    2.40
  -7 -12   4    8.80    3.50
   7  12  -3    1.10    2.80
  -7 -12   3    4.80    2.50
   7  12  -2    6.80    1.60
  -7 -12   2    1.70    2.40
   7  12  -1    2.80    2.00
   7  12   0    4.20    1.80
  -7 -12   0   -2.60    2.20
   7  12   1   -2.10    1.70
  -7 -12  -1    1.00    2.30
   7  12   2    1.50    1.90
  -7 -12  -2   13.40    3.80
   7  12   3    2.50    1.80
  -7 -12  -3    1.10    2.20
   7  12   4    1.00    1.40
  -7 -12  -4    1.60    2.40
   7  12   5    3.70    2.30
   7  12   6   -1.90    1.80
  -7 -12  -6    5.10    2.70
   7  12   7   -1.80    1.80
  -7 -12  -7   -2.80    2.30
   7  12   8   -7.00    3.00
   7  12   9   -5.50    3.10
  -7 -12  -9    2.70    2.60
   7  13  -5    0.80    1.90
  -7 -13   5   -2.10    3.50
   7  13  -4   -9.20    3.60
  -7 -13   4    3.40    3.50
   7  13  -3    6.40    2.70
  -7 -13   3   17.10    3.30
   7  13  -2   -0.10    1.50
  -7 -13   2  -11.80    3.60
   7  13  -1    5.30    1.90
  -7 -13   1   -0.30    2.40
   7  13   0   -0.70    2.00
  -7 -13   0   11.10    3.80
   7  13   1    3.70    1.80
  -7 -13  -1   -2.00    2.50
   7  13   2    8.80    4.20
  -7 -13  -2   11.40    3.80
   7  13   3    0.70    2.80
  -7 -13  -3    1.40    2.30
  -7 -13  -4   -7.30    3.30
  -7 -13  -5    3.30    3.40
   7  13   6    5.20    3.30
  -7 -13  -6   -4.10    2.30
   8  -6  -5   47.30    4.80
  -8   6   5   56.10    5.30
   8  -6  -4  135.50    8.90
  -8   6   4  124.00    8.70
   8  -6  -3   28.00    4.70
  -8   6   3   19.70    3.50
   8  -6  -2  130.70    8.10
   8  -6  -1   67.70    5.10
   8  -6   0  185.20   10.70
  -8   6   0  144.30    8.70
   8  -6   1   -1.40    2.10
  -8   6  -1   -0.80    2.50
   8  -6   2  122.90    6.10
   8  -6   3   39.00    3.20
   8  -6   4   57.20    3.80
   8  -6   5   13.30    2.40
   8  -6   6   88.70    4.60
   8  -6   7    8.70    2.20
  -8   5   7   71.50    3.90
  -8   5   6   10.40    1.90
  -8   5   5   51.90    3.00
   8  -5  -3   14.10    3.40
  -8   5   3   33.80    4.30
   8  -5  -2    8.30    3.10
   8  -5  -1    6.40    2.30
  -8   5   1   -3.30    2.60
   8  -5   0    4.30    2.50
   8  -5   1    2.20    3.40
  -8   5  -1    1.10    2.80
   8  -5   2   36.90    2.80
  -8   5  -2   24.20    3.60
   8  -5   3    8.00    2.70
   8  -5   4   10.10    2.40
   8  -5   5  200.00    8.00
   8  -5   6    1.00    1.60
   8  -5   7  149.60    5.00
   8  -5   8   22.60    1.90
   8  -5   9  206.70   13.20
   8  -5  10   13.20    2.80
  -8   4   9  129.80    5.90
  -8   4   8  298.90   11.60
  -8   4   7  126.40    5.50
  -8   4   6  315.20   11.50
  -8   4   5  104.00    4.40
  -8   4   4  591.50   15.80
  -8   4   3   75.40    3.90
   8  -4  -2  452.00   19.90
  -8   4   2  446.10   16.40
   8  -4  -1   16.60    2.00
  -8   4   1   24.90    3.90
   8  -4   0  183.70    6.30
  -8   4   0  186.20    9.80
   8  -4   1    2.10    1.20
   8  -4   2   48.70    2.60
  -8   4  -2   63.00    5.00
   8  -4   3   68.10    2.90
   8  -4   4  196.70    5.50
   8  -4   5  178.30    4.80
   8  -4   6   93.60    3.30
   8  -4   7  109.60    3.60
   8  -4   8   99.20    3.80
   8  -4   9  186.50    5.90
  -8   4 -10   85.90    6.80
  -8   4 -11   68.30    6.30
  -8   3  10  160.20    7.10
  -8   3   9  220.20    8.90
   8  -3  -8  181.20   10.40
  -8   3   8  160.80    6.50
   8  -3  -7  169.80    8.80
  -8   3   7  176.50    7.10
  -8   3   6   91.90    4.20
   8  -3  -5  125.30    5.80
  -8   3   5  126.10    4.60
   8  -3  -4   72.10    4.10
  -8   3   4   67.70    3.00
   8  -3  -3  256.20   10.40
  -8   3   3  271.60    7.80
   8  -3  -2  137.10    6.70
  -8   3   2  141.70    4.70
   8  -3  -1  229.20   10.40
  -8   3   1  234.70    6.90
   8  -3   0   53.40    3.30
  -8   3   0   56.60    4.60
   8  -3   1  249.20   10.90
  -8   3  -1  247.90   10.80
   8  -3   2    6.50    1.60
  -8   3  -2    9.30    4.00
   8  -3   3  650.00   17.80
  -8   3  -3  675.60   25.80
   8  -3   4   87.40    2.90
   8  -3   5  738.30   16.60
   8  -3   6   33.50    2.00
   8  -3   7  787.60   17.30
   8  -3   8   80.70    3.10
   8  -3   9  518.30   12.40
  -8   3  -9  505.30   21.00
  -8   3 -10  244.10   13.30
  -8   3 -11  360.60   18.20
  -8   3 -12  179.80   10.70
  -8   3 -13  214.10   12.70
  -8   2  11    1.50    3.30
   8  -2 -10  211.60   10.60
  -8   2  10  213.90    8.90
   8  -2  -9   -2.70    2.10
  -8   2   9    6.70    1.40
   8  -2  -8  666.40   25.70
  -8   2   8  669.40   15.00
   8  -2  -7    4.40    1.60
  -8   2   7    1.40    1.20
   8  -2  -6 1318.00   44.90
  -8   2   6 1283.90   32.20
   8  -2  -5   59.40    4.10
  -8   2   5   55.40    3.20
   8  -2  -4 1389.10   49.50
  -8   2   4 1493.00   36.40
   8  -2  -3   12.60    2.40
  -8   2   3   10.70    1.60
   8  -2  -2 1795.50   61.80
  -8   2   2 1887.60   45.00
   8  -2  -1    1.70    0.70
  -8   2   1    4.40    0.90
   8  -2   0 1950.90   68.10
  -8   2   0 1891.40   35.40
   8  -2   1   14.80    2.50
  -8   2  -1    2.70    3.80
   8  -2   2 1668.40   58.00
  -8   2  -2 1695.20   59.80
   8  -2   3   40.70    3.00
  -8   2  -3   38.90    3.80
   8  -2   4  997.50   20.50
  -8   2  -4  864.60   32.20
   8  -2   5   22.50    1.90
   8  -2   6  496.80   11.60
   8  -2   7   70.10    2.70
   8  -2   8  561.70   12.90
   8  -2   9   44.70    2.70
  -8   2  -9   53.40    4.60
  -8   2 -10  274.30   12.30
  -8   2 -11    6.40    2.40
  -8   2 -12  184.50   11.30
  -8   2 -13    6.10    4.10
  -8   2 -14   68.70    6.00
  -8   1  12  182.40    8.10
   8  -1 -11   78.20    5.30
  -8   1  11   92.70    5.10
   8  -1 -10  309.60   11.20
  -8   1  10  304.80   11.80
   8  -1  -9  130.40    4.80
  -8   1   9  145.70    5.80
   8  -1  -8  566.20   15.20
  -8   1   8  558.00   14.90
   8  -1  -7  355.00   10.10
  -8   1   7  325.50    9.70
   8  -1  -6  542.30   14.60
  -8   1   6  563.60   14.80
   8  -1  -5  201.60    9.70
  -8   1   5  236.00    7.10
   8  -1  -4  570.70   14.70
  -8   1   4  605.20   15.90
   8  -1  -3   82.00    3.00
  -8   1   3   84.70    3.50
   8  -1  -2  150.00    4.50
  -8   1   2  167.00    5.10
   8  -1  -1  515.20   12.80
  -8   1   1  503.40   13.10
   8  -1   0   11.40    0.70
  -8   1   0   15.30    1.10
   8  -1   1  694.00   13.50
  -8   1  -1  710.10   13.50
   8  -1   3  783.40   28.50
  -8   1  -3  706.90   27.40
   8  -1   4  244.30   10.30
  -8   1  -4  241.60   11.40
   8  -1   5  321.10    9.30
   8  -1   6  421.30    9.80
   8  -1   7  638.20   14.10
   8  -1   8  448.10   10.10
  -8   1  -8  472.20   19.60
   8  -1   9  668.70   17.70
  -8   1  -9  618.10   24.30
  -8   1 -10  579.70   22.60
  -8   1 -11  271.50   13.30
  -8   1 -12  233.90   13.10
  -8   1 -13   76.70    7.90
  -8   1 -14  248.90   13.70
  -8   1 -15   50.30    7.70
   8   0 -13   31.30    5.60
  -8   0  13   40.30    7.30
   8   0 -12   92.60    4.50
  -8   0  12  102.00    5.40
   8   0 -11   65.90    4.00
  -8   0  11   66.30    4.30
   8   0 -10   96.60    4.10
  -8   0  10  107.40    5.10
   8   0  -9  215.30    7.40
  -8   0   9  221.50    8.70
   8   0  -8  144.50    5.20
  -8   0   8  179.40    6.60
   8   0  -7  144.90    5.10
  -8   0   7  159.50    5.90
   8   0  -6  167.90    5.50
  -8   0   6  171.20    5.80
   8   0  -5   51.10    2.70
  -8   0   5   64.20    3.20
   8   0  -4   22.80    1.70
  -8   0   4   21.90    2.10
   8   0  -3  159.70    5.00
  -8   0   3  167.70    4.30
   8   0  -2    8.90    1.30
  -8   0   2    6.00    1.00
   8   0  -1  106.00    3.60
  -8   0   1  114.40    4.00
   8   0   0   80.20    2.40
  -8   0   0   73.80    2.90
   8   0   1    2.40    0.70
  -8   0  -1    0.70    0.50
   8   0   2   26.40    0.90
  -8   0  -2   29.10    1.40
   8   0   3  162.50    7.60
  -8   0  -3  161.20    7.50
   8   0   4    6.00    2.60
  -8   0  -4   15.10    3.80
   8   0   5  200.10    6.50
   8   0   6    6.30    1.10
   8   0   7  100.20    3.30
   8   0   8   89.10    2.90
  -8   0  -8   90.70    5.70
   8   0   9  263.30    7.70
  -8   0  -9  269.10    7.70
  -8   0 -10   91.00    3.50
  -8   0 -11  264.70    8.00
  -8   0 -13   49.60    2.80
  -8   0 -14   85.10    4.00
  -8   0 -15   11.20    4.20
   8   1 -13  338.30   12.80
  -8  -1  13  304.20   17.00
   8   1 -12   30.80    3.00
  -8  -1  12   28.20    3.80
   8   1 -11  280.10   10.40
  -8  -1  11  259.20   13.80
   8   1 -10   15.00    2.50
  -8  -1  10   18.10    3.20
   8   1  -9  432.20   11.90
  -8  -1   9  414.60   11.80
   8   1  -8   -1.20    1.50
  -8  -1   8    4.30    2.40
   8   1  -7  251.90    7.70
  -8  -1   7  257.00    7.50
   8   1  -6   41.10    2.40
  -8  -1   6   36.60    3.00
   8   1  -5  427.70   11.50
  -8  -1   5  424.10    9.70
   8   1  -4   82.70    3.40
  -8  -1   4   86.50    2.90
   8   1  -3  472.60   12.60
  -8  -1   3  434.20    9.60
   8   1  -2   78.90    2.70
  -8  -1   2   69.80    2.40
   8   1  -1  292.80    8.20
  -8  -1   1  285.50    6.50
   8   1   0   -0.90    1.00
  -8  -1   0   -1.50    0.80
   8   1   1  388.80    8.70
  -8  -1  -1  414.80   11.00
   8   1   2    1.00    0.70
  -8  -1  -2    2.40    1.00
   8   1   3  183.90    4.30
  -8  -1  -3  194.50    4.50
   8   1   4    8.30    0.70
  -8  -1  -4    7.80    0.70
   8   1   5  423.20    8.00
  -8  -1  -5  428.50   10.50
   8   1   6  170.70    3.20
  -8  -1  -6  165.30    4.60
   8   1   7  276.40    5.00
  -8  -1  -7  276.70    7.50
   8   1   8  133.30    3.10
  -8  -1  -8  142.90    4.70
  -8  -1  -9  242.60    7.60
  -8  -1 -10   24.10    2.00
  -8  -1 -11  436.60   12.40
  -8  -1 -12   20.40    2.10
  -8  -1 -13  362.70   11.10
  -8  -1 -14   61.20    3.90
  -8  -1 -15  374.90   13.30
  -8  -1 -16   27.30    2.50
   8   2 -14  167.00    7.20
  -8  -2  14  189.60   11.70
   8   2 -13  119.00    5.90
  -8  -2  13  100.20    8.10
   8   2 -12  182.20    8.00
  -8  -2  12  188.20   11.00
   8   2 -11  130.00    5.70
  -8  -2  11  144.60    9.20
   8   2 -10  266.20    8.20
  -8  -2  10  323.60   13.50
   8   2  -9  275.90    9.00
  -8  -2   9  265.40   12.20
   8   2  -8  151.30    5.60
  -8  -2   8  182.00    8.20
   8   2  -7  336.60    9.90
  -8  -2   7  331.10    9.60
   8   2  -6  212.00    6.80
  -8  -2   6  185.50    6.30
   8   2  -5  494.40   13.10
  -8  -2   5  473.80   12.90
   8   2  -4 1046.30   25.70
  -8  -2   4  993.20   20.50
   8   2  -3  185.60    5.60
  -8  -2   3  187.90    4.70
   8   2  -2 1141.90   27.90
  -8  -2   2 1117.60   22.80
   8   2  -1   11.90    1.50
  -8  -2   1   15.50    1.30
   8   2   0 1072.60   26.40
  -8  -2   0  967.00   20.00
   8   2   1    0.60    1.20
  -8  -2  -1    5.60    1.00
   8   2   2 1396.50   33.40
  -8  -2  -2 1333.20   26.10
   8   2   3   39.90    2.00
  -8  -2  -3   37.20    1.40
   8   2   4 1911.30   37.20
  -8  -2  -4 1957.90   46.10
   8   2   5  212.00    5.20
  -8  -2  -5  205.40    7.70
   8   2   6 1888.80   37.00
  -8  -2  -6 1872.30   63.40
   8   2   7  374.60    7.40
  -8  -2  -7  370.90   10.40
   8   2   8  566.00   10.20
  -8  -2  -8  603.40   16.50
   8   2   9  274.90   12.50
  -8  -2  -9  281.90    8.70
  -8  -2 -10  349.50   10.90
  -8  -2 -11  263.10    7.60
  -8  -2 -12  344.70   10.40
  -8  -2 -13  134.30    4.90
  -8  -2 -14   94.90    4.40
  -8  -2 -15  160.50    6.90
  -8  -2 -16   52.90    3.20
   8   3 -14   12.00    2.90
  -8  -3  14   11.50    4.00
   8   3 -13   56.10    3.80
  -8  -3  13   43.70    5.20
   8   3 -12   69.20    4.00
  -8  -3  12   59.70    5.00
   8   3 -11  235.10    7.70
  -8  -3  11  233.30   11.10
   8   3 -10  119.10    5.20
  -8  -3  10   98.20    6.80
   8   3  -9  506.80   20.00
  -8  -3   9  523.10   20.20
   8   3  -8  250.50    8.20
  -8  -3   8  231.10   10.10
   8   3  -7  933.10   23.30
   8   3  -6  139.60    5.80
  -8  -3   6  142.30    7.10
   8   3  -5 2162.80   52.40
  -8  -3   5 2111.20   41.60
   8   3  -4   84.70    3.70
  -8  -3   4   84.10    2.60
   8   3  -3 3991.10   93.40
  -8  -3   3 3940.70   75.40
   8   3  -2  339.30    9.50
  -8  -3   2  313.30    7.20
   8   3  -1 3155.40   74.30
  -8  -3   1 3083.60   58.90
   8   3   0   17.30    2.10
  -8  -3   0   16.20    2.00
   8   3   1 2559.70   60.20
  -8  -3  -1 2397.90   46.10
   8   3   2   15.40    1.90
  -8  -3  -2   16.10    1.80
   8   3   3 2613.90   84.80
  -8  -3  -3 2433.30   46.80
   8   3   4  323.40    8.80
  -8  -3  -4  287.20    6.40
   8   3   5 2034.90   34.80
  -8  -3  -5 2026.70   48.10
   8   3   6   93.60    3.70
  -8  -3  -6   86.50    3.10
   8   3   7  936.90   19.60
  -8  -3  -7  891.00   22.80
   8   3   8  175.60    5.80
  -8  -3  -8  164.70    5.20
   8   3   9  305.40    9.00
  -8  -3  -9  315.60    9.10
   8   3  10  281.40   12.70
  -8  -3 -10  318.80    9.50
   8   3  11  278.30   12.50
  -8  -3 -11  304.10    9.70
  -8  -3 -12  111.90    4.50
  -8  -3 -13  261.10    8.50
  -8  -3 -14   30.90    2.50
  -8  -3 -15   98.50    4.80
  -8  -3 -16    2.50    1.60
   8   4 -14   64.80    4.10
  -8  -4  14   55.20    5.80
   8   4 -13   99.50    5.50
  -8  -4  13   79.10    6.00
   8   4 -12  184.80    7.40
  -8  -4  12  215.60   12.20
   8   4 -11   52.80    4.00
  -8  -4  11   58.70    6.80
   8   4 -10  176.50    9.60
  -8  -4  10  187.40    9.90
   8   4  -9   21.40    2.80
  -8  -4   9   18.40    3.50
   8   4  -8  415.00   11.80
  -8  -4   8  461.70   17.90
   8   4  -7   30.60    2.70
  -8  -4   7   33.90    3.20
   8   4  -6  604.80   15.80
  -8  -4   6  583.30   21.20
   8   4  -5  251.60    8.40
  -8  -4   5  256.90   12.00
   8   4  -4 1299.10   32.30
  -8  -4   4 1311.90   32.40
   8   4  -3   13.50    2.40
  -8  -4   3    4.00    1.20
   8   4  -2 1899.60   46.00
  -8  -4   2 1854.20   36.80
   8   4  -1    7.90    1.90
  -8  -4   1    8.70    1.40
   8   4   0 2714.60   65.50
  -8  -4   0 2614.90   51.20
   8   4   1    8.50    1.70
  -8  -4  -1    5.00    0.90
   8   4   2 2743.50   64.40
  -8  -4  -2 2648.60   51.50
   8   4   3   42.00    2.40
  -8  -4  -3   33.30    1.60
   8   4   4 3563.90   83.40
  -8  -4  -4 3429.50   80.70
   8   4   5   41.20    2.00
  -8  -4  -5   37.60    2.00
   8   4   6 1981.70   33.90
  -8  -4  -6 1937.30   46.90
   8   4   7  222.90    4.10
  -8  -4  -7  230.20    6.70
   8   4   8 1760.60   43.60
  -8  -4  -8 1675.40   41.00
   8   4   9   58.40    2.40
  -8  -4  -9   67.90    3.50
   8   4  10  640.20   17.80
  -8  -4 -10  678.50   18.40
   8   4  11   21.60    2.70
  -8  -4 -11   20.60    2.60
   8   4  12  204.50    9.40
  -8  -4 -12  247.10    8.60
  -8  -4 -13   91.30    4.10
  -8  -4 -14   95.30    4.60
  -8  -4 -15  125.20    5.90
  -8  -4 -16    8.90    2.30
   8   5 -14  215.20    9.10
  -8  -5  14  247.10   13.60
   8   5 -13  141.20    6.70
  -8  -5  13  160.80   10.40
   8   5 -12  225.00    9.10
  -8  -5  12  211.50   12.90
   8   5 -11  203.10    7.50
  -8  -5  11  250.60   11.70
   8   5 -10  158.30    6.40
  -8  -5  10  163.60    8.20
   8   5  -9  330.00   10.50
  -8  -5   9  375.90   16.90
   8   5  -8  200.00    6.60
  -8  -5   8  175.60    8.30
   8   5  -7  598.90   16.50
  -8  -5   7  591.80   22.90
   8   5  -6  309.00    9.10
  -8  -5   6  311.20   13.00
   8   5  -5  234.40    7.40
  -8  -5   5  231.80   10.40
   8   5  -4  120.40    4.70
  -8  -5   4  149.40    7.20
   8   5  -3   19.20    2.00
  -8  -5   3   18.00    1.60
   8   5  -2    2.60    2.30
  -8  -5   2    9.70    1.10
   8   5  -1   66.60    3.10
  -8  -5   1   61.70    2.40
   8   5   0   33.70    2.30
  -8  -5   0   39.80    1.70
   8   5   1    7.10    2.40
  -8  -5  -1    1.60    1.30
   8   5   2    3.50    1.40
  -8  -5  -2    4.70    0.90
   8   5   3   21.10    2.10
  -8  -5  -3   19.20    1.30
   8   5   4  101.00    3.10
  -8  -5  -4   87.40    2.80
   8   5   5  105.90    2.60
  -8  -5  -5  109.10    3.90
   8   5   6  219.00    4.50
  -8  -5  -6  225.20    6.90
   8   5   7    7.40    0.90
  -8  -5  -7    4.30    1.30
   8   5   8  330.50    7.60
  -8  -5  -8  302.00    9.30
   8   5   9  246.00    7.50
  -8  -5  -9  245.40    7.70
   8   5  10  202.50    6.50
  -8  -5 -10  206.90    6.50
   8   5  11   94.90    4.60
  -8  -5 -11  116.40    5.60
   8   5  12  129.20    6.60
  -8  -5 -12  140.60    5.20
   8   5  13  320.60   15.80
  -8  -5 -13  353.40   11.20
  -8  -5 -14  177.90    7.50
  -8  -5 -15  315.60   12.30
  -8  -5 -16   86.20    4.20
   8   6 -13   30.80    4.50
  -8  -6  13   26.20    6.50
   8   6 -12  238.70    9.80
  -8  -6  12  211.60   12.80
   8   6 -11   21.30    3.60
  -8  -6  11   20.40    4.90
   8   6 -10  215.60    7.20
  -8  -6  10  189.20    9.30
   8   6  -9    3.80    3.20
  -8  -6   9    7.20    6.10
   8   6  -8  109.20    4.60
  -8  -6   8  116.10    6.10
   8   6  -7    7.70    2.60
  -8  -6   7   -4.60    4.10
   8   6  -6   40.00    3.00
  -8  -6   6   26.70    3.70
   8   6  -5    3.60    2.40
  -8  -6   5    6.30    3.30
   8   6  -4  211.60    6.80
  -8  -6   4  218.10    9.60
   8   6  -3    2.60    2.20
  -8  -6   3   11.50    2.90
   8   6  -2  139.30    4.80
  -8  -6   2  134.80    4.50
   8   6  -1   -1.30    1.90
  -8  -6   1    0.20    1.30
   8   6   0   27.70    2.20
  -8  -6   0   31.00    1.40
   8   6   1    1.10    2.00
  -8  -6  -1    0.80    1.30
   8   6   2    1.30    1.00
  -8  -6  -2    4.00    1.00
   8   6   3    2.80    1.00
  -8  -6  -3    3.60    0.90
   8   6   4   34.00    1.50
  -8  -6  -4   33.00    1.60
   8   6   5    3.40    0.80
  -8  -6  -5    0.70    0.90
   8   6   6   16.60    1.30
  -8  -6  -6   15.10    1.50
   8   6   7   46.50    1.90
  -8  -6  -7   47.50    2.50
   8   6   8  289.70    8.90
  -8  -6  -8  264.70    8.40
   8   6   9   -0.80    1.80
  -8  -6  -9   -2.50    3.00
   8   6  10  292.00    9.00
  -8  -6 -10  304.80    9.00
   8   6  11    1.30    1.90
  -8  -6 -11    5.00    2.50
   8   6  12  249.60    8.10
  -8  -6 -12  245.20    7.60
   8   6  13    5.50    3.10
  -8  -6 -13   -1.40    2.00
  -8  -6 -14  178.90    7.20
  -8  -6 -15    6.40    2.10
   8   7 -13  271.70   10.90
  -8  -7  13  290.90   17.10
   8   7 -12   91.20    5.30
  -8  -7  12   97.50    8.20
   8   7 -11  309.40   11.40
  -8  -7  11  301.80   15.90
   8   7 -10   70.40    4.20
  -8  -7  10   51.90    5.40
   8   7  -9  486.50   14.00
  -8  -7   9  576.50   22.50
   8   7  -8   76.40    4.10
  -8  -7   8   89.00    6.60
   8   7  -7  421.80   11.90
  -8  -7   7  452.20   18.00
   8   7  -6  296.00    9.10
  -8  -7   6  303.00   12.50
   8   7  -5  308.60    9.10
  -8  -7   5  304.20   12.20
   8   7  -4  143.60    4.80
  -8  -7   4  150.30    7.10
   8   7  -3  103.70    4.30
  -8  -7   3  123.20    6.10
   8   7  -2   -2.80    1.40
  -8  -7   2   -5.20    1.90
   8   7  -1   41.70    2.70
  -8  -7   1   46.90    2.60
   8   7   0   -2.00    2.00
  -8  -7   0    1.60    1.50
   8   7   1  127.50    4.60
  -8  -7  -1  122.30    4.00
   8   7   2    0.90    2.00
  -8  -7  -2    7.20    1.10
   8   7   3    7.40    0.80
  -8  -7  -3    5.00    1.00
   8   7   4   18.90    1.00
  -8  -7  -4    8.50    2.20
   8   7   5   58.00    2.30
  -8  -7  -5   54.00    3.50
   8   7   6  126.70    3.90
  -8  -7  -6  156.20    8.30
   8   7   7  172.20    5.90
  -8  -7  -7  205.10   10.40
   8   7   8  261.00    8.10
  -8  -7  -8  270.80   12.10
   8   7   9  284.60    8.90
  -8  -7  -9  300.60   13.80
   8   7  10   16.30    2.90
  -8  -7 -10   38.00    5.60
   8   7  11  563.30   16.90
  -8  -7 -11  550.20   15.50
   8   7  12  162.00    9.50
  -8  -7 -12  148.50    6.40
   8   7  13  315.00   11.60
  -8  -7 -13  297.00   10.90
   8   7  14  103.50    5.80
  -8  -7 -14  128.70    6.00
  -8  -7 -15  421.60   15.20
   8   8 -12  126.80    6.70
  -8  -8  12  153.40    9.60
   8   8 -11   25.80    3.30
  -8  -8  11   53.90    5.70
   8   8 -10  264.80   10.20
  -8  -8  10  234.90   14.00
   8   8  -9   24.20    3.20
  -8  -8   9   26.60    5.20
   8   8  -8  331.80   10.90
  -8  -8   8  329.00   16.30
   8   8  -7   81.70    3.80
  -8  -8   7   93.30    6.10
   8   8  -6  338.80   10.30
  -8  -8   6  414.90   16.50
   8   8  -5   88.40    4.20
  -8  -8   5   70.70    5.80
   8   8  -4 1066.70   27.00
  -8  -8   4 1059.20   37.80
   8   8  -3   27.80    2.90
  -8  -8   3   17.60    3.30
   8   8  -2  823.10   21.10
  -8  -8   2  835.20   29.80
   8   8  -1   53.30    2.90
  -8  -8   1   42.60    4.50
   8   8   0 1039.10   26.50
  -8  -8   0 1082.80   27.10
   8   8   1    4.00    2.00
  -8  -8  -1    1.30    1.00
   8   8   2  976.30   25.20
  -8  -8  -2 1001.00   24.70
   8   8   3    4.40    1.70
  -8  -8  -3   10.40    3.70
   8   8   4 1087.30   27.80
  -8  -8  -4 1042.70   38.70
   8   8   5   72.80    2.60
  -8  -8  -5   61.80    4.30
   8   8   6  931.70   25.10
  -8  -8  -6  974.10   36.60
   8   8   7  166.90    6.00
  -8  -8  -7  185.70    9.40
   8   8   8  300.50    9.20
  -8  -8  -8  345.90   15.30
   8   8   9   74.30    3.70
  -8  -8  -9   92.80    5.30
   8   8  10  254.90    8.40
  -8  -8 -10  279.20   12.90
   8   8  11   37.10    2.80
  -8  -8 -11   39.20    3.90
   8   8  12  148.40    6.70
  -8  -8 -12  174.90   10.70
   8   8  13   11.10    2.30
  -8  -8 -13   14.60    2.00
   8   8  14   75.90    4.40
  -8  -8 -14   62.50    3.60
   8   9 -11  185.20    8.20
  -8  -9  11  185.20   11.50
   8   9 -10   27.20    3.10
  -8  -9  10   16.10    3.40
   8   9  -9  234.80    9.10
  -8  -9   9  241.50   12.60
   8   9  -8    8.20    3.40
  -8  -9   8    1.50    5.00
   8   9  -7  546.70   15.30
  -8  -9   7  489.90   20.60
   8   9  -6   50.70    3.70
  -8  -9   6   45.80    5.90
   8   9  -5 1424.10   34.40
  -8  -9   5 1354.70   46.70
   8   9  -4   48.60    4.00
  -8  -9   4   55.70    6.30
   8   9  -3 2632.80   63.30
  -8  -9   3 2590.90   86.20
   8   9  -2   35.30    4.00
  -8  -9   2   22.90    3.40
   8   9  -1 2611.50   63.40
  -8  -9   1 2528.90   87.70
   8   9   0   40.40    3.90
  -8  -9   0   33.30    1.90
   8   9   1 2452.10   59.30
  -8  -9  -1 2400.90   57.60
   8   9   2   64.60    3.90
  -8  -9  -2   52.40    5.30
   8   9   3 2926.10   71.40
  -8  -9  -3 3064.70  105.70
   8   9   4   37.40    2.80
  -8  -9  -4   49.60    4.80
   8   9   5 2681.70   65.10
  -8  -9  -5 2725.50   96.60
   8   9   6   95.30    4.70
   8   9   7 1291.40   34.20
  -8  -9  -7 1233.00   48.00
   8   9   8   75.80    3.70
  -8  -9  -8   65.10    5.20
   8   9   9  518.80   14.80
  -8  -9  -9  553.30   22.60
   8   9  10   18.10    2.20
  -8  -9 -10    6.30    3.70
   8   9  11  267.50   10.20
  -8  -9 -11  306.90   17.30
   8   9  12   20.80    2.80
  -8  -9 -12   31.60    4.40
   8   9  13  132.10    6.60
  -8  -9 -13  149.10    9.30
   8  10 -10  226.60    9.50
  -8 -10  10  215.40   13.60
   8  10  -9  309.00   12.10
  -8 -10   9  319.10   18.50
   8  10  -8  288.30   10.90
  -8 -10   8  281.20   15.70
   8  10  -7  406.00   14.40
  -8 -10   7  456.80   22.90
   8  10  -6  620.90   16.70
  -8 -10   6  650.50   23.70
   8  10  -5  476.20   13.70
  -8 -10   5  380.70   15.70
   8  10  -4  726.70   19.40
  -8 -10   4  699.60   27.20
   8  10  -3   81.10    4.10
  -8 -10   3   58.20    4.80
   8  10  -2 1167.50   29.90
  -8 -10   2 1236.10   44.30
   8  10  -1   15.60    2.30
  -8 -10   1   31.70    4.20
   8  10   0  527.60   14.50
  -8 -10   0  555.50   21.70
   8  10   1   11.10    2.00
  -8 -10  -1    7.40    2.70
   8  10   2  659.70   17.70
  -8 -10  -2  710.60   27.70
   8  10   3   37.20    3.00
  -8 -10  -3   39.40    4.50
   8  10   4  703.20   19.50
  -8 -10  -4  701.80   28.70
   8  10   5  208.90    7.30
  -8 -10  -5  207.20   10.20
   8  10   6  436.60   13.00
  -8 -10  -6  384.70   17.40
   8  10   7  374.20   10.90
  -8 -10  -7  424.60   19.60
   8  10   8  289.70   11.10
  -8 -10  -8  328.60   17.10
   8  10   9  242.50    9.50
  -8 -10  -9  256.10   13.80
   8  10  10  174.80    9.90
  -8 -10 -10  199.50   11.50
   8  10  11  211.10    8.40
  -8 -10 -11  270.80   14.50
   8  10  12  224.90   13.50
  -8 -10 -12  246.40   14.80
   8  11  -9    2.70    1.90
  -8 -11   9   -1.30    2.80
   8  11  -8   57.10    4.00
  -8 -11   8   42.50    5.00
   8  11  -7   -3.00    1.90
  -8 -11   7   10.60    3.20
   8  11  -6   79.70    4.40
  -8 -11   6   54.70    4.90
   8  11  -5    8.40    2.50
  -8 -11   5    4.90    3.40
   8  11  -4   95.50    4.70
  -8 -11   4   88.50    6.70
   8  11  -3    2.80    1.80
  -8 -11   3    1.20    2.10
   8  11  -2    3.20    2.20
  -8 -11   2    7.70    2.70
   8  11  -1   69.80    3.50
  -8 -11   1   80.60    5.40
   8  11   0   -0.10    1.60
  -8 -11   0   -1.30    2.10
   8  11   1   47.40    3.10
  -8 -11  -1   50.90    4.30
   8  11   2   16.80    2.60
  -8 -11  -2    2.40    3.70
   8  11   3  140.00    5.40
  -8 -11  -3  132.10    7.50
   8  11   4   16.90    2.40
  -8 -11  -4   21.80    4.20
   8  11   5   57.70    3.50
  -8 -11  -5   47.10    4.30
   8  11   6  119.90    5.30
  -8 -11  -6  113.00    7.50
   8  11   7   86.70    4.30
  -8 -11  -7   90.00    7.50
   8  11   8   75.80    4.30
  -8 -11  -8   92.10    6.90
   8  11   9   63.20    4.10
  -8 -11  -9   67.90    6.50
   8  11  10   40.50    3.20
   8  12  -6  108.90    5.50
  -8 -12   6   86.20    7.00
   8  12  -5  116.70    5.50
  -8 -12   5  114.20    8.30
   8  12  -4   22.80    2.80
  -8 -12   4   17.30    4.10
   8  12  -3   83.50    4.10
  -8 -12   3   85.90    6.20
   8  12  -2    5.10    2.80
  -8 -12   2   13.20    2.90
   8  12  -1   89.00    4.50
  -8 -12   1   80.00    6.50
   8  12   0   11.50    1.90
  -8 -12   0    0.10    2.50
   8  12   1    0.30    2.20
  -8 -12  -1    8.70    3.40
   8  12   2    0.00    1.90
  -8 -12  -2   -0.90    2.50
   8  12   3   49.90    3.30
  -8 -12  -3   58.70    5.20
   8  12   4   19.90    2.40
  -8 -12  -4   24.60    3.30
   8  12   5   72.60    4.10
  -8 -12  -5   83.80    6.40
   8  12   6   11.20    2.20
   8  12   7  164.90    7.20
  -8 -12  -7  169.30   11.00
   8  12   8   91.40    4.70
  -8 -12  -8  108.60    7.90
   8  13  -3   81.30    4.50
  -8 -13   3   72.20    6.00
   8  13  -2   11.30    2.40
  -8 -13   2    8.40    3.60
   8  13  -1  202.50    8.20
  -8 -13   1  228.70   12.50
   8  13   0    8.90    4.50
  -8 -13   0    6.50    3.60
   8  13   1  427.60   15.10
  -8 -13  -1  453.00   22.40
   8  13   2   16.30    2.20
  -8 -13  -2   26.70    4.40
   8  13   3  207.80    8.40
  -8 -13  -3  202.30   12.20
   8  13   4   93.70    4.70
  -8 -13  -4   65.70    6.40
   9  -5  -3   13.10    3.60
   9  -5  -1   -1.40    3.30
   9  -5   0    8.10    3.60
  -9   5   0    8.40    3.20
   9  -5   1    3.70    3.20
   9  -5   2    6.60    2.00
   9  -5   3    2.80    3.30
   9  -5   4    3.40    2.00
   9  -5   5   -2.50    1.50
   9  -5   6    3.00    1.80
  -9   4   6   -0.60    1.40
  -9   4   5   10.50    1.60
   9  -4   0   -4.30    2.50
  -9   4   0   13.20    4.50
   9  -4   1    6.30    3.20
  -9   4  -1   -3.50    2.40
  -9   4  -2   -4.30    3.80
   9  -4   3   -0.70    1.20
   9  -4   4   14.20    1.60
   9  -4   5    1.90    1.30
   9  -4   6    0.40    1.60
   9  -4   7    5.00    1.50
   9  -4   8   -1.10    1.80
   9  -4   9    5.70    1.70
  -9   3   8   -1.50    2.00
  -9   3   7    7.10    1.70
  -9   3   6    8.60    1.80
  -9   3   5    1.90    1.80
   9  -3  -4   -3.30    1.60
  -9   3   4    2.00    1.50
   9  -3  -3    5.30    2.10
  -9   3   3    2.00    1.30
   9  -3  -2    1.60    1.60
  -9   3   2    5.00    2.90
   9  -3  -1    2.20    1.70
  -9   3   1   -7.20    3.70
   9  -3   0   -0.50    1.80
  -9   3   0    5.70    2.90
   9  -3   1   -3.40    1.30
  -9   3  -1   -5.60    3.60
   9  -3   2   -0.60    1.50
   9  -3   3    1.60    1.40
  -9   3  -3   -3.20    3.80
   9  -3   4    2.60    1.30
   9  -3   5    2.80    1.20
   9  -3   6    4.70    1.60
   9  -3   7    0.20    1.60
   9  -3   8    8.20    2.30
   9  -3   9   -0.20    1.70
   9  -3  10   -0.20    2.70
   9  -3  11   20.90    3.70
  -9   2   9    0.00    2.00
   9  -2  -8   -0.30    1.90
  -9   2   8   -6.20    4.00
   9  -2  -7   -0.90    1.40
  -9   2   7   -0.90    2.00
   9  -2  -6   10.50    2.30
  -9   2   6   -0.60    1.80
   9  -2  -5    4.00    2.10
   9  -2  -4    4.10    2.10
  -9   2   4    4.00    1.60
   9  -2  -3    7.90    2.20
  -9   2   3   10.50    1.50
   9  -2  -2   -3.20    1.30
  -9   2   2   -1.10    1.00
   9  -2  -1    0.30    1.90
  -9   2   1    7.70    2.90
   9  -2   0    9.00    2.30
  -9   2   0   -1.40    4.00
   9  -2   1    3.90    2.10
  -9   2  -1   -2.40    2.80
   9  -2   2    8.40    1.70
  -9   2  -2    4.20    3.30
   9  -2   3   -1.80    1.60
   9  -2   4    2.80    1.50
   9  -2   5    2.70    1.30
   9  -2   6   -0.30    1.20
   9  -2   7    8.50    1.60
   9  -2   8    5.60    2.20
   9  -2   9    2.00    2.00
   9  -2  10   -2.60    2.10
   9  -2  11    9.10    2.60
  -9   2 -11    2.30    4.10
  -9   2 -12   -0.90    2.50
   9  -1 -10   -5.20    2.60
  -9   1  10    0.10    2.10
  -9   1   9   -0.70    1.90
   9  -1  -8   -2.70    2.00
  -9   1   8    1.60    2.20
   9  -1  -7   12.20    1.90
  -9   1   7   10.10    2.70
   9  -1  -6   -0.90    2.20
  -9   1   6   11.10    4.20
   9  -1  -5    4.10    2.10
  -9   1   5    7.30    1.80
   9  -1  -4    8.20    2.50
  -9   1   4    3.40    1.50
   9  -1  -3    5.40    2.30
  -9   1   3   -3.70    1.30
   9  -1  -2    6.80    2.30
  -9   1   2    7.20    1.50
   9  -1  -1   -2.80    2.10
  -9   1   1    3.00    2.70
   9  -1   0   -1.80    2.00
  -9   1   0    2.10    0.70
   9  -1   1   -7.40    2.10
  -9   1  -1   -2.70    3.60
   9  -1   2    8.00    1.80
  -9   1  -2    7.00    3.60
   9  -1   3   -0.80    2.30
  -9   1  -3   -3.60    3.30
   9  -1   4    1.60    1.30
  -9   1  -4    3.40    3.50
   9  -1   5   -2.00    1.20
   9  -1   6   10.40    1.50
   9  -1   7    0.30    1.30
   9  -1   8    2.20    1.90
   9  -1   9    6.50    1.90
   9  -1  10   -4.20    3.00
  -9   1 -10    7.50    3.00
  -9   1 -11    3.80    2.90
  -9   1 -12    8.60    4.10
   9   0 -11   12.30    3.30
  -9   0  11    3.70    4.60
   9   0 -10   10.60    3.00
  -9   0  10   11.80    2.40
   9   0  -9    2.90    2.50
  -9   0   9    0.00    1.70
  -9   0   8   -1.50    2.20
   9   0  -7    9.10    2.60
  -9   0   7    6.30    1.70
   9   0  -6   10.50    2.80
  -9   0   6   18.10    2.30
   9   0  -5   15.20    2.40
  -9   0   5    7.90    1.90
   9   0  -4    0.40    2.50
  -9   0   4   -1.10    1.40
   9   0  -3    5.40    1.90
  -9   0   3   -0.20    1.40
   9   0  -2    7.90    2.70
  -9   0   2    3.00    1.20
   9   0  -1   46.80    3.80
  -9   0   1   36.60    2.10
   9   0   0    2.60    2.70
  -9   0   0    0.80    1.00
   9   0   1    1.10    0.50
  -9   0  -1   -0.60    0.70
   9   0   2   -8.10    2.60
  -9   0  -2    3.10    0.30
   9   0   3   61.70    3.70
  -9   0  -3   59.10    5.00
   9   0   4    6.50    2.20
  -9   0  -4   14.10    3.70
   9   0   5    0.60    1.00
   9   0   6    0.10    1.90
   9   0   7    5.20    1.20
   9   0   8   20.00    2.00
   9   0   9   11.60    2.50
   9   0  10    7.60    3.60
  -9   0 -10    0.40    2.50
  -9   0 -11   -6.20    2.40
  -9   0 -12    5.00    2.70
  -9   0 -13    8.00    4.00
  -9   0 -14   21.20    4.20
   9   1 -12   14.20    3.50
  -9  -1  12   12.90    2.90
   9   1 -11   -0.90    2.90
  -9  -1  11   -0.70    2.30
   9   1 -10    0.80    1.90
  -9  -1  10    1.10    2.40
   9   1  -9    0.50    2.00
  -9  -1   9   -4.70    2.10
   9   1  -8   10.50    1.80
  -9  -1   8   13.80    2.30
   9   1  -7   11.70    1.60
  -9  -1   7    5.50    1.80
   9   1  -6   27.20    2.30
  -9  -1   6   28.70    2.70
   9   1  -5    4.10    1.40
  -9  -1   5    5.90    1.70
   9   1  -4    5.70    1.50
  -9  -1   4    2.20    2.20
   9   1  -3    5.60    1.30
  -9  -1   3    8.70    1.80
   9   1  -2   12.70    1.60
  -9  -1   2   24.10    3.90
   9   1  -1    2.70    1.10
  -9  -1   1    4.20    1.30
   9   1   0    0.70    1.00
  -9  -1   0    1.20    1.00
   9   1   1    2.70    1.00
  -9  -1  -1    3.70    2.60
   9   1   2    9.30    0.70
  -9  -1  -2   12.60    0.70
   9   1   3    0.20    0.40
  -9  -1  -3    0.30    0.70
   9   1   4    2.90    0.70
  -9  -1  -4    8.40    2.50
   9   1   5   -3.20    1.70
  -9  -1  -5    1.90    0.60
   9   1   6    0.50    1.10
  -9  -1  -6    1.00    0.60
   9   1   7    7.30    1.20
  -9  -1  -7    6.50    0.70
   9   1   8    6.00    2.00
  -9  -1  -8    4.00    0.70
   9   1   9    2.30    2.40
   9   1  10   -2.20    3.40
  -9  -1 -10    0.10    0.70
  -9  -1 -11    7.40    1.00
  -9  -1 -12    4.70    1.20
  -9  -1 -13   15.00    3.00
  -9  -1 -14    2.50    3.50
   9   2 -12   14.50    2.70
  -9  -2  12    9.10    3.50
   9   2 -11    3.90    2.20
  -9  -2  11    0.30    2.20
   9   2 -10    3.80    2.20
  -9  -2  10    3.60    2.70
   9   2  -9    7.20    2.30
  -9  -2   9    4.70    2.30
   9   2  -8    8.80    2.10
  -9  -2   8   10.60    2.20
   9   2  -7    2.10    1.90
  -9  -2   7    8.40    2.10
   9   2  -6   -0.60    1.80
  -9  -2   6    7.00    2.00
   9   2  -5   -0.70    1.70
  -9  -2   5    3.30    1.80
   9   2  -4    0.50    1.20
  -9  -2   4   -2.70    1.50
   9   2  -3   13.00    1.70
  -9  -2   3    1.00    2.30
   9   2  -2    3.70    1.40
  -9  -2   2   -1.90    3.50
   9   2  -1    1.80    1.20
  -9  -2   1    0.40    0.80
   9   2   0    3.30    1.20
  -9  -2   0    1.70    1.30
   9   2   1   19.60    1.70
  -9  -2  -1   11.70    1.00
   9   2   2    5.20    1.10
  -9  -2  -2    7.30    1.30
   9   2   3    0.30    1.00
  -9  -2  -3    2.00    1.30
   9   2   4    6.00    1.10
  -9  -2  -4    5.90    1.20
   9   2   5    2.80    1.00
  -9  -2  -5    0.40    1.10
   9   2   6    1.00    1.90
  -9  -2  -6   -1.90    1.00
   9   2   7    2.30    0.90
  -9  -2  -7    0.00    1.20
   9   2   8   -0.60    1.50
  -9  -2  -8   -1.10    1.20
   9   2   9    3.90    2.40
  -9  -2  -9    0.40    1.10
   9   2  10    9.60    2.60
  -9  -2 -10   13.60    1.40
   9   2  11    3.10    2.80
  -9  -2 -11    5.00    1.60
  -9  -2 -12    6.90    1.50
  -9  -2 -13    4.00    1.60
  -9  -2 -14    0.30    1.40
  -9  -2 -15    4.20    1.50
   9   3 -12    8.30    2.20
  -9  -3  12   -1.50    2.20
   9   3 -11    4.80    1.80
  -9  -3  11   -5.00    2.30
   9   3 -10    3.50    1.60
  -9  -3  10   -1.40    2.00
   9   3  -9    7.40    2.30
  -9  -3   9    4.30    3.30
   9   3  -8    8.70    2.10
  -9  -3   8    5.20    2.30
   9   3  -7    5.50    1.90
  -9  -3   7   -0.20    1.90
   9   3  -6    2.70    1.40
  -9  -3   6   -0.20    1.50
   9   3  -5   -1.00    1.40
  -9  -3   5    2.20    1.90
   9   3  -4   11.10    1.60
  -9  -3   4   11.40    1.80
   9   3  -3    1.90    1.70
  -9  -3   3    9.10    1.80
   9   3  -2    1.10    1.50
  -9  -3   2    2.10    1.00
   9   3  -1   -0.60    1.30
  -9  -3   1    2.80    0.90
   9   3   0   11.00    2.30
  -9  -3   0    9.80    1.20
   9   3   1    6.60    1.50
  -9  -3  -1    3.60    1.10
   9   3   2   -1.30    1.20
  -9  -3  -2    1.60    0.80
   9   3   3   10.70    1.40
  -9  -3  -3    7.90    0.90
   9   3   4    4.00    1.30
  -9  -3  -4    1.30    0.80
   9   3   5    2.10    1.20
  -9  -3  -5    1.10    1.40
   9   3   6   11.60    1.30
  -9  -3  -6    6.70    1.50
   9   3   7    1.30    1.00
  -9  -3  -7    5.20    1.50
   9   3   8    4.10    1.80
  -9  -3  -8    2.60    1.60
   9   3   9   -1.80    3.50
  -9  -3  -9    1.70    1.50
   9   3  10   -0.30    3.50
  -9  -3 -10    7.20    1.60
   9   3  11    2.00    4.10
  -9  -3 -11    0.50    1.30
  -9  -3 -12    7.00    1.60
  -9  -3 -13    5.00    1.50
  -9  -3 -14   -0.40    1.70
  -9  -3 -15   -3.00    1.70
   9   4 -12   -0.90    2.20
  -9  -4  12    7.50    3.20
   9   4 -11    6.30    2.50
  -9  -4  11    3.00    4.00
   9   4 -10   42.50    3.20
  -9  -4  10   46.50    4.80
   9   4  -9    0.80    1.70
  -9  -4   9    9.80    2.40
   9   4  -8    1.00    1.80
   9   4  -7    4.80    1.80
   9   4  -6    4.50    1.50
  -9  -4   6    5.50    1.80
   9   4  -5    3.30    1.60
  -9  -4   5   -2.40    2.10
   9   4  -4   -0.80    1.80
  -9  -4   4   -7.80    1.80
   9   4  -3   -0.80    1.80
  -9  -4   3    0.10    1.30
   9   4  -2   -2.40    1.40
  -9  -4   2    2.20    1.10
   9   4  -1    1.80    1.20
  -9  -4   1    0.90    0.90
   9   4   0   10.10    1.60
  -9  -4   0   12.10    1.20
   9   4   1    5.00    1.60
  -9  -4  -1    0.00    0.90
   9   4   2    0.90    1.10
  -9  -4  -2    6.30    1.20
   9   4   3   -0.30    1.50
  -9  -4  -3    3.90    0.90
   9   4   4   -1.40    3.10
  -9  -4  -4    6.40    1.00
   9   4   5    0.40    1.10
  -9  -4  -5    2.80    1.80
   9   4   6    6.30    1.30
  -9  -4  -6    5.40    1.90
   9   4   7    0.00    1.30
  -9  -4  -7    1.80    1.70
   9   4   8    0.80    1.80
  -9  -4  -8    3.90    1.80
   9   4   9    9.60    1.60
  -9  -4  -9   -1.60    1.90
   9   4  10   11.40    3.30
  -9  -4 -10    0.90    2.00
   9   4  11    7.00    2.80
  -9  -4 -11    1.30    2.90
   9   4  12    2.90    2.60
  -9  -4 -12   -0.60    1.80
  -9  -4 -13   -5.50    1.60
  -9  -4 -14   -0.20    2.50
  -9  -4 -15    1.00    1.80
   9   5 -12    1.80    1.80
  -9  -5  12    6.20    3.00
   9   5 -11   15.80    2.80
  -9  -5  11   30.20    4.40
   9   5 -10    7.80    2.40
  -9  -5  10    3.50    2.40
   9   5  -9    5.90    1.70
  -9  -5   9    0.80    2.10
   9   5  -8   -2.40    1.80
  -9  -5   8    6.40    3.10
   9   5  -7   -1.00    1.50
  -9  -5   7   11.50    2.80
   9   5  -6    3.30    1.80
  -9  -5   6    9.80    2.40
   9   5  -5   14.10    2.00
  -9  -5   5   19.90    2.30
   9   5  -4    9.00    2.00
  -9  -5   4    4.60    2.20
   9   5  -3   -2.40    1.30
  -9  -5   3   -2.60    1.30
   9   5  -2    0.30    1.50
  -9  -5   2   -3.20    0.90
   9   5  -1    8.60    1.50
  -9  -5   1    7.90    1.20
   9   5   0    9.40    1.90
  -9  -5   0    7.80    1.30
   9   5   1    0.20    1.80
  -9  -5  -1    0.50    1.10
   9   5   2    0.90    1.40
  -9  -5  -2   -0.60    0.80
   9   5   3    2.50    1.70
  -9  -5  -3    3.80    1.10
   9   5   4   48.80    2.70
  -9  -5  -4   43.40    1.80
   9   5   5   -0.30    0.80
  -9  -5  -5    5.40    1.70
   9   5   6    8.00    1.30
  -9  -5  -6    4.50    2.40
   9   5   7   24.70    1.70
  -9  -5  -7   10.60    2.60
   9   5   8    3.50    1.50
  -9  -5  -8    0.40    2.20
   9   5   9   -2.40    2.50
  -9  -5  -9   -3.10    2.30
   9   5  10    4.60    2.10
  -9  -5 -10    0.80    2.30
   9   5  11    4.60    2.70
  -9  -5 -11    7.70    1.80
   9   5  12   -0.80    2.70
  -9  -5 -12    1.40    1.50
   9   5  13   -1.70    2.30
  -9  -5 -13   -0.40    1.50
  -9  -5 -14   -4.40    1.90
  -9  -5 -15    0.50    1.90
   9   6 -12    7.40    2.10
  -9  -6  12   -0.30    2.70
   9   6 -11   25.10    3.20
  -9  -6  11   27.70    3.70
   9   6 -10    1.10    2.40
   9   6  -9   -3.60    1.60
  -9  -6   9    9.10    2.90
   9   6  -8    5.40    2.20
  -9  -6   8   -5.00    3.00
   9   6  -7   13.20    2.60
  -9  -6   7   11.10    3.50
   9   6  -6   15.40    2.20
  -9  -6   6   16.40    2.90
   9   6  -5    4.80    2.10
  -9  -6   5    7.70    3.20
   9   6  -4    4.00    2.20
  -9  -6   4    1.10    3.20
   9   6  -3   -1.70    2.00
  -9  -6   3    2.60    2.00
   9   6  -2    3.50    2.10
  -9  -6   2    4.10    1.80
   9   6  -1    5.60    1.70
  -9  -6   1    2.90    1.40
   9   6   0   -2.50    1.60
  -9  -6   0    5.60    1.20
   9   6   1    3.20    1.70
  -9  -6  -1    1.30    0.90
   9   6   2    1.30    1.70
  -9  -6  -2    3.90    0.90
   9   6   3    8.30    1.00
  -9  -6  -3    5.40    1.00
   9   6   4    1.50    0.90
  -9  -6  -4    2.40    1.10
   9   6   5   -0.10    0.80
  -9  -6  -5   -0.50    2.20
   9   6   6    0.80    1.00
  -9  -6  -6    5.60    2.40
   9   6   7    3.00    1.50
  -9  -6  -7    1.70    1.60
   9   6   8   10.90    1.70
  -9  -6  -8    6.80    2.20
   9   6   9    1.10    1.70
   9   6  10    0.10    1.40
  -9  -6 -10   -1.70    1.60
   9   6  11    3.40    1.80
  -9  -6 -11   -2.90    2.40
   9   6  12    6.90    3.00
  -9  -6 -12   -0.80    1.50
   9   6  13    0.10    2.80
  -9  -6 -13    1.40    1.60
   9   6  14    5.30    4.20
  -9  -6 -14   14.40    2.40
   9   7 -12   23.80    2.80
  -9  -7  12   28.30    5.10
   9   7 -11   -0.50    3.50
  -9  -7  11   -5.00    2.60
   9   7 -10    3.50    2.20
  -9  -7  10   -4.40    3.50
   9   7  -9    3.50    1.80
  -9  -7   9    1.80    2.40
   9   7  -8   26.50    2.90
  -9  -7   8   14.60    3.80
   9   7  -7   -1.20    1.80
  -9  -7   7    1.10    2.50
   9   7  -6   12.90    2.10
  -9  -7   6   17.00    3.50
   9   7  -5    3.80    1.80
  -9  -7   5    8.10    3.10
   9   7  -4    0.00    2.00
  -9  -7   4    2.40    3.30
   9   7  -3   -0.80    1.60
  -9  -7   3    1.10    1.50
   9   7  -2    8.90    1.70
  -9  -7   2    0.00    1.70
   9   7  -1   -0.80    1.40
  -9  -7   1    0.30    1.40
   9   7   0    6.80    1.60
  -9  -7   0    4.40    2.20
   9   7   1   -0.60    1.50
  -9  -7  -1    2.10    1.10
   9   7   2    2.70    1.50
  -9  -7  -2   -0.20    1.10
   9   7   3    8.10    1.90
  -9  -7  -3    8.50    1.20
   9   7   4    2.50    0.90
  -9  -7  -4    0.70    1.80
   9   7   5    5.50    1.00
  -9  -7  -5    8.50    2.30
   9   7   6   -1.10    1.70
  -9  -7  -6   -4.90    2.50
   9   7   7   -2.70    3.10
  -9  -7  -7   -0.20    2.70
   9   7   8    3.30    2.40
  -9  -7  -8    8.30    2.20
   9   7   9    2.70    1.70
  -9  -7  -9   -8.10    2.80
   9   7  10    5.90    1.70
   9   7  11   -1.30    1.60
   9   7  12    2.10    1.70
  -9  -7 -12    1.10    2.00
   9   7  13  -12.10    3.60
  -9  -7 -13    3.30    1.50
   9   7  14   -6.00    3.80
  -9  -7 -14   -1.20    2.00
   9   8 -11    2.40    1.80
  -9  -8  11   -0.90    3.90
   9   8 -10   20.30    2.80
  -9  -8  10    1.60    2.70
   9   8  -9    5.00    2.60
  -9  -8   9   11.00    4.10
   9   8  -8    4.90    1.90
  -9  -8   8    1.40    2.60
   9   8  -7   15.00    2.70
  -9  -8   7    4.30    3.30
   9   8  -6   16.50    2.30
  -9  -8   6    4.50    2.40
   9   8  -5   -0.80    1.80
  -9  -8   5    5.00    2.30
   9   8  -4   -2.90    1.70
  -9  -8   4   -1.30    3.00
   9   8  -3    3.20    1.90
  -9  -8   3    2.70    3.10
   9   8  -2    6.00    2.00
  -9  -8   2    0.80    1.30
   9   8  -1    5.20    1.90
  -9  -8   1   -3.10    1.60
   9   8   0    1.70    1.50
  -9  -8   0    0.10    1.20
   9   8   1   11.50    1.70
  -9  -8  -1    8.40    1.30
   9   8   2    8.10    1.90
  -9  -8  -2    5.80    1.00
   9   8   3    5.80    1.00
  -9  -8  -3    1.90    2.10
   9   8   4    0.20    2.50
   9   8   5    1.50    1.80
  -9  -8  -5   14.20    3.20
   9   8   6    0.60    1.80
  -9  -8  -6    2.60    2.10
   9   8   7    2.50    2.10
  -9  -8  -7   -6.60    2.80
   9   8   8    2.30    1.80
  -9  -8  -8   -0.60    2.00
   9   8   9    2.90    2.40
  -9  -8  -9    3.50    3.40
   9   8  10    6.80    3.10
  -9  -8 -10   -4.40    3.10
   9   8  11   -6.10    2.30
  -9  -8 -11    1.90    3.00
   9   8  12   -1.20    3.70
  -9  -8 -12   -1.20    3.00
   9   8  13    8.50    3.90
  -9  -8 -13    3.60    3.20
   9   9 -10   -1.10    1.90
  -9  -9  10    1.70    2.60
   9   9  -9   16.30    3.20
  -9  -9   9   16.70    4.00
   9   9  -8    2.40    2.00
  -9  -9   8    4.60    2.70
   9   9  -7    8.70    2.10
  -9  -9   7    0.10    3.40
   9   9  -6   -3.00    3.50
  -9  -9   6   -8.50    3.30
   9   9  -5   -0.50    1.80
  -9  -9   5   -1.60    2.40
   9   9  -4   -4.00    1.80
  -9  -9   4    2.40    2.30
   9   9  -3   14.60    2.20
  -9  -9   3    7.00    3.50
   9   9  -2    4.90    1.90
  -9  -9   2    3.70    1.40
   9   9  -1   -3.00    1.80
  -9  -9   1    2.30    1.30
  -9  -9   0    9.30    1.40
   9   9   1    2.00    2.30
  -9  -9  -1   19.00    2.80
   9   9   2    3.10    2.30
  -9  -9  -2    4.50    3.30
   9   9   3    1.40    1.70
  -9  -9  -3   -4.80    2.90
   9   9   4    1.40    2.00
  -9  -9  -4   -4.40    2.20
   9   9   5    4.40    2.50
  -9  -9  -5   10.60    3.50
   9   9   6    4.40    1.90
  -9  -9  -6   10.20    2.50
   9   9   7   -0.30    2.40
  -9  -9  -7    1.50    3.10
   9   9   8   -4.00    1.80
  -9  -9  -8   -0.20    3.20
   9   9   9    2.10    1.70
  -9  -9  -9    4.40    2.40
   9   9  10    7.00    1.70
  -9  -9 -10    1.80    2.20
   9   9  11   -4.30    1.70
  -9  -9 -11    1.40    2.30
   9   9  12    3.80    1.90
  -9  -9 -12    3.70    2.30
   9  10  -9    8.80    2.80
  -9 -10   9   -2.10    3.60
   9  10  -8   27.60    2.80
   9  10  -7    3.00    2.10
  -9 -10   7   -0.70    3.70
   9  10  -6   -1.70    2.60
  -9 -10   6    1.80    2.40
   9  10  -5    1.80    2.00
  -9 -10   5    5.10    2.80
   9  10  -4    1.00    1.90
   9  10  -3   -4.70    1.70
  -9 -10   3    4.20    3.10
   9  10  -2    7.00    2.00
  -9 -10   2    5.60    2.30
   9  10  -1    6.00    3.40
  -9 -10   1   11.90    3.60
   9  10   0   11.20    2.10
  -9 -10   0    0.20    3.30
   9  10   1    1.40    1.70
  -9 -10  -1   -1.00    2.40
   9  10   2    0.90    2.20
  -9 -10  -2   -4.00    3.20
   9  10   3   -0.40    2.90
  -9 -10  -3    0.80    3.90
   9  10   4    0.50    1.70
  -9 -10  -4    3.60    2.50
   9  10   5    5.10    2.40
  -9 -10  -5   11.40    3.80
   9  10   6    0.50    1.70
  -9 -10  -6    0.60    2.20
   9  10   7    7.20    2.10
  -9 -10  -7    6.50    2.70
   9  10   8    4.10    1.80
  -9 -10  -8    0.90    3.30
   9  10   9   -4.70    1.90
   9  10  10    0.40    3.50
   9  10  11    4.60    3.70
  -9 -10 -11    4.20    3.40
   9  11  -7    3.30    1.80
   9  11  -6    1.00    2.20
  -9 -11   6   -5.00    2.20
   9  11  -5    3.60    2.50
  -9 -11   5   -4.00    3.50
   9  11  -4   -0.20    1.70
   9  11  -3    8.00    2.60
  -9 -11   3    0.90    2.70
   9  11  -2    2.20    2.10
  -9 -11   2    0.30    3.20
   9  11  -1    4.50    1.80
  -9 -11   1    9.50    2.70
   9  11   0   -5.40    2.30
  -9 -11   0    4.50    3.20
   9  11   1    6.80    3.00
  -9 -11  -1    0.00    2.20
   9  11   2    4.80    3.70
  -9 -11  -2   -3.30    2.30
   9  11   3    4.20    2.10
  -9 -11  -3    3.10    2.50
   9  11   4    8.50    2.10
   9  11   5    2.50    2.90
  -9 -11  -5    1.40    2.40
   9  11   6    2.50    2.40
  -9 -11  -6   13.70    3.80
   9  11   7   -2.20    2.30
  -9 -11  -7   -0.70    3.30
   9  11   8    3.50    1.90
  -9 -11  -8   -4.80    2.20
   9  11   9    4.80    1.90
  -9 -11  -9    8.30    2.60
   9  12  -5    8.50    3.60
  -9 -12   5   10.80    2.70
   9  12  -4   13.00    2.80
  -9 -12   4   -4.60    3.10
   9  12  -3    1.60    1.60
  -9 -12   3   -0.40    2.30
   9  12  -2    8.50    2.50
  -9 -12   2   -5.50    3.50
   9  12  -1    3.80    1.90
  -9 -12   1    7.30    2.70
   9  12   0    3.30    2.50
  -9 -12   0   -6.30    3.50
   9  12   1    0.60    2.10
  -9 -12  -1   -2.60    2.60
   9  12   2    1.10    2.00
  -9 -12  -2    2.80    3.30
   9  12   3   -1.30    2.00
   9  12   4    1.90    3.10
   9  12   5    6.00    3.30
   9  12   6    7.50    2.00
  -9 -12  -6   -1.20    2.40
   9  12   7   -3.30    2.00
  -9 -12  -7   -2.20    2.50
  10  -4   0  453.50   24.50
 -10   4   0  392.50   24.60
  10  -4   1    1.00    2.20
  10  -4   2  436.70   18.00
 -10   4  -2  419.70   24.00
  10  -4   3   17.60    2.70
 -10   3   4  100.50    7.00
 -10   3   3  281.80   16.30
 -10   3   2   18.40    3.80
 -10   3   1  558.30   27.30
 -10   3   0   20.30    4.10
  10  -3   1 1167.80   53.60
 -10   3  -1 1176.70   54.80
  10  -3   2   13.70    1.80
  10  -3   3  800.00   22.00
 -10   3  -3  759.60   36.30
  10  -3   4   47.70    2.60
  10  -3   5  617.60   16.90
  10  -3   6  107.60    4.10
  10  -3   7  441.70   16.80
 -10   2   6  589.80   20.10
  10  -2  -5  164.70    9.40
 -10   2   5  169.50    7.20
  10  -2  -4  381.50   20.50
 -10   2   4  402.00   14.50
  10  -2  -3  172.60   10.20
  10  -2  -2  205.10   11.30
  10  -2  -1  132.90    7.50
 -10   2   1  138.70    8.60
  10  -2   0  252.50   13.80
 -10   2   0  314.80   16.20
  10  -2   1   20.90    2.80
 -10   2  -1   17.50    3.30
  10  -2   2  211.10   11.50
 -10   2  -2  220.60   12.00
  10  -2   3   78.60    3.80
 -10   2  -3   77.90    6.40
  10  -2   4   89.30    3.50
  10  -2   5  109.70    3.90
  10  -2   6  183.20    6.00
  10  -2   7  202.10    8.30
  10  -2   8  283.30   10.50
  10  -2   9  231.40    9.30
  10  -1  -8   26.10    3.40
 -10   1   8   25.70    2.60
  10  -1  -7   18.50    2.90
 -10   1   7   14.30    2.00
  10  -1  -6   -0.40    1.50
 -10   1   6    1.00    1.30
  10  -1  -5   36.60    3.80
 -10   1   5   38.30    3.00
  10  -1  -4    3.70    2.30
 -10   1   4    1.10    1.40
  10  -1  -3   36.10    3.20
 -10   1   3   26.40    2.30
  10  -1  -2   20.20    2.60
 -10   1   2    7.80    1.30
  10  -1  -1  112.60    7.00
 -10   1   1  128.80    8.80
  10  -1   0   17.70    3.10
 -10   1   0   22.40    3.50
  10  -1   1  134.80    7.70
 -10   1  -1  142.40    8.20
  10  -1   2   21.80    2.90
 -10   1  -2   38.40    5.00
  10  -1   3  238.00   12.00
 -10   1  -3  244.00   11.30
  10  -1   4    8.60    1.70
 -10   1  -4    8.50    2.90
  10  -1   5  238.80    6.60
  10  -1   6   13.40    1.60
  10  -1   7  181.90    7.40
  10  -1   8   19.00    2.40
  10  -1   9  148.60    6.50
  10  -1  10    8.90    3.70
  10  -1  11   90.80    6.60
 -10   0   9  132.90    6.20
  10   0  -8  132.00    8.30
 -10   0   8  156.00    7.00
  10   0  -7  231.50   13.30
 -10   0   7  251.90    9.50
  10   0  -6  200.90   10.50
 -10   0   6  215.00    8.30
  10   0  -5  186.10   10.40
 -10   0   5  167.00    7.60
  10   0  -4  260.20   11.70
 -10   0   4  272.50    8.90
  10   0  -3  144.20    7.80
 -10   0   3  151.20    5.70
  10   0  -2  447.40   19.90
 -10   0   2  464.60   14.30
  10   0  -1    4.00    1.80
 -10   0   1   -0.50    1.20
  10   0   0  135.60   11.20
 -10   0   0  115.10    4.90
  10   0   1    6.90    2.60
 -10   0  -1    6.20    3.70
  10   0   2  166.90   11.10
 -10   0  -2  235.10   11.70
  10   0   3   11.90    3.00
 -10   0  -3   11.30    2.90
  10   0   4  335.30   17.10
 -10   0  -4  356.30   16.90
  10   0   5  113.50    3.70
  10   0   6  303.40    7.50
  10   0   7  203.20    7.40
  10   0   8  190.50    7.60
  10   0   9  263.60   10.10
  10   0  10  118.50    7.60
  10   0  11  122.60    8.60
  10   0  12  230.70   13.00
  10   1 -10   47.40    4.60
 -10  -1  10   45.30    3.70
  10   1  -9   72.20    5.50
 -10  -1   9   67.00    4.50
  10   1  -8   99.60    6.30
 -10  -1   8   97.90    4.80
  10   1  -7  160.70    9.30
 -10  -1   7  190.80    7.70
  10   1  -6   61.80    4.70
 -10  -1   6   72.30    4.20
  10   1  -5  407.60   16.80
 -10  -1   5  427.50   12.20
  10   1  -4   69.40    4.90
 -10  -1   4   67.30    3.30
  10   1  -3 1213.20   44.90
 -10  -1   3 1338.20   34.70
  10   1  -2  104.80    6.40
 -10  -1   2  101.90    4.10
  10   1  -1 1324.50   48.00
 -10  -1   1 1322.10   33.40
  10   1   0   23.30    3.20
 -10  -1   0   22.80    2.20
  10   1   1 1099.20   41.60
 -10  -1  -1 1126.20   28.50
  10   1   2   14.40    2.70
 -10  -1  -2   10.30    1.30
  10   1   3 1594.90   57.20
 -10  -1  -3 1550.30   37.30
  10   1   4  132.30    6.10
 -10  -1  -4  122.90    7.30
  10   1   5 1488.20   37.40
  10   1   6  102.50    4.80
  10   1   7  825.50   22.00
  10   1   8  116.60    4.90
  10   1   9  254.60    9.50
  10   1  10   83.20    6.00
  10   1  11  110.30    8.00
  10   1  12   45.60    5.30
 -10  -1 -12   67.30    5.50
  10   2 -10   57.90    5.10
 -10  -2  10   46.80    3.60
  10   2  -9   29.10    4.10
 -10  -2   9   24.30    2.80
  10   2  -8   65.60    5.30
 -10  -2   8   80.10    4.90
  10   2  -7   -9.20    2.90
 -10  -2   7    1.90    2.00
  10   2  -6  246.20   11.10
 -10  -2   6  284.60    9.20
  10   2  -5    5.80    3.00
 -10  -2   5    0.70    2.10
  10   2  -4  412.50   18.00
 -10  -2   4  434.70   13.20
  10   2  -3   19.40    3.70
 -10  -2   3    7.00    1.90
  10   2  -2  805.60   35.10
 -10  -2   2  845.00   23.70
  10   2  -1   73.70    4.90
 -10  -2   1   71.40    3.20
  10   2   0  866.90   38.90
 -10  -2   0  898.50   25.50
  10   2   1   19.40    3.50
 -10  -2  -1    3.80    1.30
  10   2   2  915.80   38.60
 -10  -2  -2  919.60   24.90
  10   2   3   17.00    4.10
 -10  -2  -3   13.20    1.50
  10   2   4  902.20   34.60
 -10  -2  -4  938.60   24.70
  10   2   5   13.30    2.20
 -10  -2  -5   10.80    1.20
  10   2   6  586.70   16.60
 -10  -2  -6  563.10   20.80
  10   2   7   27.70    2.30
 -10  -2  -7   34.10    2.10
  10   2   8  340.10    9.90
 -10  -2  -8  307.30   12.20
  10   2   9   27.50    2.90
 -10  -2  -9   17.00    1.60
  10   2  10   99.40    7.00
  10   2  11   18.30    4.50
  10   2  12   60.60    5.80
 -10  -2 -12   44.40    4.80
  10   2  13    4.60    3.80
 -10  -2 -13    2.10    3.70
  10   3 -10   16.30    2.90
 -10  -3  10   19.50    3.20
  10   3  -9  346.70   12.70
 -10  -3   9  385.20   14.10
  10   3  -8   78.40    4.10
 -10  -3   8   68.40    4.20
  10   3  -7  499.10   14.70
 -10  -3   7  551.00   15.80
  10   3  -6   91.40    4.20
 -10  -3   6   84.20    4.50
  10   3  -5  442.80   12.90
 -10  -3   5  473.70   13.80
  10   3  -4   87.70    3.80
 -10  -3   4   79.40    3.50
  10   3  -3  151.00    5.40
 -10  -3   3  145.60    7.90
  10   3  -2    4.00    1.50
 -10  -3   2    0.10    2.50
  10   3  -1  294.10    9.20
 -10  -3   1  331.50    9.40
  10   3   0   13.50    1.50
 -10  -3   0   17.20    1.60
  10   3   1  200.80    6.50
 -10  -3  -1  233.70    6.70
  10   3   2   24.30    3.70
 -10  -3  -2   12.60    1.70
  10   3   3  230.10   10.20
 -10  -3  -3  252.00    7.00
  10   3   4    8.90    2.70
 -10  -3  -4   14.60    1.60
  10   3   5  100.80    4.20
 -10  -3  -5  109.20    3.70
  10   3   6   83.70    3.90
 -10  -3  -6   69.80    3.80
  10   3   7  400.50   11.50
 -10  -3  -7  386.70   14.80
  10   3   8  141.20    5.60
 -10  -3  -8  114.80    5.40
  10   3   9  542.30   20.70
 -10  -3  -9  500.60   18.50
  10   3  10   66.30    5.70
 -10  -3 -10   58.90    4.20
  10   3  11  595.80   27.90
 -10  -3 -11  521.40   27.60
  10   3  12   35.00    5.10
 -10  -3 -12   27.30    3.20
  10   3  13  286.70   17.60
 -10  -3 -13  253.30   10.70
  10   4 -11   19.50    2.40
 -10  -4  11   24.50    3.50
  10   4 -10  217.90    8.50
 -10  -4  10  246.90    9.60
  10   4  -9   18.80    2.60
 -10  -4   9   18.30    3.00
  10   4  -8  352.40   12.80
 -10  -4   8  351.60   13.10
  10   4  -7   44.70    2.80
 -10  -4   7   36.00    2.80
  10   4  -6  224.40    7.10
 -10  -4   6  255.10    8.30
  10   4  -5   13.10    1.90
 -10  -4   5   25.40    2.20
  10   4  -4   76.20    5.40
 -10  -4   4   97.00    4.20
  10   4  -3   27.90    2.00
 -10  -4   3   25.70    2.20
  10   4  -2   32.10    2.50
 -10  -4   2   34.20    2.50
  10   4  -1   15.70    2.60
 -10  -4   1   16.80    2.30
  10   4   0  194.10    6.50
 -10  -4   0  222.70    6.80
  10   4   1    3.50    1.50
 -10  -4  -1    2.10    1.70
  10   4   2  266.90    8.10
 -10  -4  -2  287.20    8.30
  10   4   3    6.40    1.40
 -10  -4  -3    4.80    1.50
  10   4   4   37.50    2.40
 -10  -4  -4   40.40    2.20
  10   4   5   26.90    2.60
 -10  -4  -5   33.50    2.80
  10   4   6  150.40    5.40
 -10  -4  -6  169.10    7.30
  10   4   7   11.00    2.30
 -10  -4  -7   10.40    1.70
  10   4   8  234.80    7.30
 -10  -4  -8  197.00    8.90
  10   4   9   19.30    3.60
 -10  -4  -9   19.50    2.30
  10   4  10  428.80   20.80
 -10  -4 -10  403.80   20.00
  10   4  11   21.30    3.50
 -10  -4 -11   19.40    2.60
  10   4  12  207.30   11.90
 -10  -4 -12  195.50   11.10
 -10  -4 -13    9.30    1.80
  10   5 -11  316.40   12.70
 -10  -5  11  315.40   17.90
  10   5 -10   23.40    2.90
 -10  -5  10   36.20    5.00
  10   5  -9  510.70   18.00
 -10  -5   9  584.80   27.80
  10   5  -8   39.80    3.00
 -10  -5   8   39.80    4.10
  10   5  -7  289.50    9.50
 -10  -5   7  344.80   11.40
  10   5  -6  120.60    4.90
 -10  -5   6  115.60    4.90
  10   5  -5  134.60    6.40
 -10  -5   5  151.50    7.10
  10   5  -4  116.30    4.20
 -10  -5   4  109.60    4.20
  10   5  -3    6.80    2.20
 -10  -5   3    1.20    2.00
  10   5  -2   -4.80    1.50
 -10  -5   2    0.50    3.00
  10   5  -1   28.60    3.30
 -10  -5   1   36.20    3.80
  10   5   0    3.80    1.60
 -10  -5   0    1.10    1.60
  10   5   1    4.30    2.40
 -10  -5  -1   22.30    3.00
  10   5   2    4.20    1.80
 -10  -5  -2   -0.90    1.60
  10   5   3   70.30    4.40
 -10  -5  -3   64.10    3.60
  10   5   4    1.80    1.50
 -10  -5  -4   -2.70    2.10
  10   5   5   17.40    1.70
 -10  -5  -5   29.00    2.80
  10   5   6  105.50    4.00
 -10  -5  -6  115.40    5.50
  10   5   7  178.90    6.10
 -10  -5  -7  188.50    8.70
  10   5   8  144.00    7.80
 -10  -5  -8  111.00    5.80
  10   5   9  438.50   18.10
 -10  -5  -9  406.10   16.60
  10   5  10   46.60    5.20
 -10  -5 -10   39.10    3.50
  10   5  11  660.40   31.40
 -10  -5 -11  606.60   28.90
  10   5  12   21.10    3.50
 -10  -5 -12   19.10    2.90
  10   5  13  483.50   24.80
 -10  -5 -13  447.50   23.60
  10   6 -10  119.80    5.70
 -10  -6  10  133.90    8.50
  10   6  -9   25.90    2.90
 -10  -6   9   29.70    3.60
  10   6  -8  244.40   13.50
 -10  -6   8  257.60   13.90
  10   6  -7   53.80    3.40
 -10  -6   7   67.00    5.10
  10   6  -6  339.70   10.10
 -10  -6   6  365.10   11.00
  10   6  -5   80.60    4.10
 -10  -6   5   59.50    4.30
  10   6  -4 1014.20   27.10
 -10  -6   4 1038.60   27.10
  10   6  -3   21.00    2.80
 -10  -6   3   21.40    2.80
  10   6  -2 1191.80   31.60
 -10  -6   2 1305.10   33.70
  10   6  -1   20.70    2.50
 -10  -6   1   17.60    2.50
  10   6   0 1492.20   38.60
 -10  -6   0 1471.30   36.60
  10   6   1   21.20    2.30
 -10  -6  -1   20.70    1.90
  10   6   2 1436.00   36.40
 -10  -6  -2 1464.30   35.50
  10   6   3   42.30    4.20
 -10  -6  -3   29.70    2.00
  10   6   4 1455.70   29.70
 -10  -6  -4 1389.20   34.30
  10   6   5   80.20    2.80
 -10  -6  -5   90.00    5.20
  10   6   6  955.30   20.10
 -10  -6  -6  953.50   34.70
  10   6   7   32.60    2.80
 -10  -6  -7   56.00    4.30
  10   6   8  417.70   17.20
 -10  -6  -8  379.20   15.50
  10   6   9   65.80    6.00
 -10  -6  -9   77.30    4.70
  10   6  10  193.90   10.90
 -10  -6 -10  150.20    8.90
  10   6  11   22.60    4.20
 -10  -6 -11    1.00    2.60
 -10  -6 -12  129.60    7.80
  10   6  13    9.70    3.20
 -10  -6 -13    8.90    2.90
  10   7 -10   32.10    3.20
 -10  -7  10   39.40    4.70
  10   7  -9  135.80    6.40
 -10  -7   9  174.40   10.80
  10   7  -8   12.20    2.20
 -10  -7   8    8.30    3.40
  10   7  -7  220.30    9.00
 -10  -7   7  256.00   13.80
  10   7  -6   45.80    3.20
 -10  -7   6   34.00    3.70
  10   7  -5  494.60   14.70
 -10  -7   5  527.10   15.10
  10   7  -4   18.90    2.60
 -10  -7   4   36.00    3.20
  10   7  -3  869.50   25.20
 -10  -7   3  989.40   27.80
  10   7  -2   21.00    2.60
 -10  -7   2   24.70    2.70
  10   7  -1  935.30   27.60
 -10  -7   1  936.50   27.60
  10   7   0   39.60    3.10
 -10  -7   0   34.90    2.60
  10   7   1  564.30   19.70
 -10  -7  -1  603.60   18.50
  10   7   2   17.90    2.30
 -10  -7  -2   20.50    2.00
  10   7   3 1126.80   31.20
 -10  -7  -3 1137.30   29.60
  10   7   4   30.10    2.40
 -10  -7  -4   28.80    2.10
  10   7   5 1122.00   23.30
 -10  -7  -5 1141.00   40.10
  10   7   6   45.00    3.10
 -10  -7  -6   33.50    4.00
  10   7   7  749.50   20.10
 -10  -7  -7  771.80   28.80
  10   7   8   75.20    4.00
 -10  -7  -8   52.00    4.60
  10   7   9  330.90   17.20
 -10  -7  -9  335.90   16.30
  10   7  10   28.80    4.90
 -10  -7 -10   32.70    3.80
  10   7  11  261.00   15.60
 -10  -7 -11  177.20   10.20
  10   7  12   48.80    5.20
 -10  -7 -12   43.10    4.60
  10   8  -9  101.30    5.50
 -10  -8   9  118.50    8.40
  10   8  -8   19.00    3.10
 -10  -8   8   15.20    4.50
  10   8  -7  147.70    6.80
 -10  -8   7  149.30   10.00
  10   8  -6  160.00    8.90
 -10  -8   6  157.80    9.60
  10   8  -5  204.00    8.20
 -10  -8   5  210.00   11.60
  10   8  -4  378.60   11.80
 -10  -8   4  401.10   11.70
  10   8  -3   75.60    4.20
 -10  -8   3   90.40    4.50
  10   8  -2  777.80   20.80
 -10  -8   2  803.90   21.10
  10   8  -1   14.80    2.20
 -10  -8   1    9.80    1.90
  10   8   0  566.60   15.80
 -10  -8   0  569.30   15.00
  10   8   1   -5.80    2.20
 -10  -8  -1    2.50    1.30
  10   8   2  512.60   14.60
 -10  -8  -2  526.10   20.30
  10   8   3    5.80    3.40
 -10  -8  -3   12.10    3.30
  10   8   4  745.70   20.20
 -10  -8  -4  804.40   29.70
  10   8   5  134.50    5.20
 -10  -8  -5  130.70    7.50
  10   8   6  311.30   14.50
 -10  -8  -6  321.00   14.90
  10   8   7  269.40   12.20
 -10  -8  -7  242.00   11.60
  10   8   8  135.90    6.10
 -10  -8  -8  152.30    8.90
  10   8   9  239.10    9.20
 -10  -8  -9  224.40   12.40
  10   8  10   38.30    4.50
 -10  -8 -10   31.00    3.50
  10   8  11  147.50    9.60
 -10  -8 -11  136.90    8.40
  10   8  12   37.50    5.30
 -10  -8 -12   16.60    3.40
  10   9  -8   18.20    3.90
 -10  -9   8   25.90    3.90
  10   9  -7  189.50    7.80
 -10  -9   7  200.40   11.50
  10   9  -6   82.60    4.60
 -10  -9   6   84.50    6.40
  10   9  -5  175.40    7.10
 -10  -9   5  150.20    9.50
  10   9  -4   94.90    4.70
 -10  -9   4   67.60    5.50
  10   9  -3  155.20    5.80
 -10  -9   3  152.20    5.40
  10   9  -2    7.00    2.10
 -10  -9   2    9.40    2.00
  10   9  -1  221.40    7.50
 -10  -9   1  213.00    9.90
  10   9   0   11.80    2.20
 -10  -9   0   11.70    2.50
  10   9   1  192.20    6.40
 -10  -9  -1  186.20    9.20
  10   9   2   33.90    3.80
 -10  -9  -2   28.80    4.20
  10   9   3  264.40    8.50
 -10  -9  -3  221.80   10.40
  10   9   4    9.80    2.10
 -10  -9  -4   18.20    3.40
  10   9   5  235.80    7.90
 -10  -9  -5  220.80   11.40
  10   9   6   52.90    3.60
 -10  -9  -6   75.90    5.80
  10   9   7  225.40    8.40
 -10  -9  -7  220.00   12.40
  10   9   8   29.20    3.10
 -10  -9  -8   45.70    4.60
  10   9   9  231.20    9.20
 -10  -9  -9  228.40   12.90
  10   9  10    7.30    2.60
 -10  -9 -10   15.60    3.40
  10   9  11  136.00    9.00
 -10  -9 -11  169.20   10.50
  10  10  -7   18.00    3.20
 -10 -10   7   27.10    4.80
  10  10  -6   51.80    3.90
 -10 -10   6   51.60    6.80
  10  10  -5   50.20    3.80
 -10 -10   5   61.70    5.70
  10  10  -4    4.30    2.60
 -10 -10   4   16.90    5.40
  10  10  -3   25.60    3.40
 -10 -10   3   36.30    4.90
  10  10  -2    3.70    2.30
 -10 -10   2    5.60    4.20
  10  10  -1   69.10    4.30
 -10 -10   1   52.80    5.20
  10  10   0   51.10    4.70
 -10 -10   0   64.50    6.90
  10  10   1    1.70    1.80
 -10 -10  -1   -6.10    2.20
  10  10   2   46.90    4.00
 -10 -10  -2   62.30    6.20
  10  10   3   59.40    3.90
 -10 -10  -3   57.60    5.30
  10  10   4   14.80    2.40
 -10 -10  -4   13.50    3.00
  10  10   5   54.30    3.60
  10  10   6   87.00    4.60
  10  10   7   92.90    4.90
 -10 -10  -7  107.80    7.40
  10  10   8  179.20    7.70
 -10 -10  -8  171.80   10.30
  10  10   9   79.50    4.90
 -10 -10  -9   75.50    6.80
  10  11  -5  291.80   11.50
 -10 -11   5  325.80   18.10
  10  11  -4  169.00    7.40
 -10 -11   4  157.40    9.70
  10  11  -3  301.60   11.50
 -10 -11   3  342.30   18.80
  10  11  -2   44.70    3.50
 -10 -11   2   57.90    5.20
  10  11  -1  461.00   16.90
 -10 -11   1  471.60   23.90
  10  11   0   20.70    2.60
 -10 -11   0   14.50    3.50
  10  11   1  920.90   32.50
 -10 -11  -1  978.10   46.80
  10  11   2    2.40    2.20
 -10 -11  -2   17.60    3.60
  10  11   3  455.10   17.30
 -10 -11  -3  429.50   23.00
  10  11   4   68.10    3.90
 -10 -11  -4   84.80    6.30
  10  11   5  322.10   12.70
 -10 -11  -5  313.10   17.10
  10  11   6  252.60   10.00
 -10 -11  -6  275.20   14.60
  10  11   7  285.40   11.20
 -10 -11  -7  305.10   17.20
  10  12  -1    9.70    2.40
 -10 -12   1    5.90    3.80
  10  12   0  557.90   28.90
 -10 -12   0  618.90   31.30
  10  12   1    9.60    2.10
 -10 -12  -1    7.20    3.70
  10  12   2  666.60   34.50
 -10 -12  -2  658.90   33.60
  10  12   3   14.20    3.10
  10  12   4  605.00   29.60
 -11   2   1   25.40    3.90
 -11   2   0    7.20    4.20
  11  -2   1    5.60    2.30
 -11   2  -1    0.40    2.70
  11  -2   2    1.20    1.80
 -11   2  -2    0.00    3.70
  11  -2   3   13.20    1.80
 -11   2  -3   15.40    3.30
  11  -2   4    1.50    1.20
  11  -1  -4    7.30    2.50
 -11   1   4   15.80    3.50
  11  -1  -3    1.80    1.60
  11  -1  -2    1.90    2.40
 -11   1   2   12.60    5.00
  11  -1  -1   -2.60    2.40
 -11   1   1    3.20    2.90
  11  -1   0   10.20    2.80
 -11   1   0    7.40    2.90
  11  -1   1    4.60    2.70
 -11   1  -1    3.90    4.00
  11  -1   2    9.80    2.10
 -11   1  -2    4.90    4.00
  11  -1   3   10.60    2.20
 -11   1  -3    3.20    2.60
  11  -1   4    5.60    1.40
  11  -1   5   14.70    2.40
  11  -1   6    1.80    2.30
  11  -1   7    3.90    1.70
  11   0  -6    0.90    2.70
 -11   0   6    0.90    1.80
  11   0  -5   14.10    2.40
 -11   0   5    4.40    1.90
  11   0  -4    4.80    2.00
 -11   0   4   -0.70    1.40
  11   0  -3    3.30    2.70
 -11   0   3    2.60    1.30
  11   0  -2    4.20    2.70
 -11   0   2    4.90    3.00
  11   0  -1   10.30    2.90
 -11   0   1  -10.80    4.00
 -11   0   0    2.30    2.80
  11   0   1   34.60    3.90
 -11   0  -1   16.60    4.30
  11   0   2    1.60    2.60
 -11   0  -2   -2.70    2.60
  11   0   3    4.20    2.80
 -11   0  -3    2.80    2.80
  11   0   4    7.10    2.30
 -11   0  -4    5.60    3.50
  11   0   5    8.60    2.10
  11   0   6    7.50    1.70
  11   0   7    3.40    1.90
  11   0   8    4.60    1.90
  11   0   9   -0.40    2.10
  11   1  -7    3.70    1.90
 -11  -1   7   -1.80    2.00
  11   1  -6   -4.80    1.90
 -11  -1   6    0.80    1.90
  11   1  -5    5.20    2.10
 -11  -1   5    4.10    1.70
  11   1  -4   -0.60    1.60
 -11  -1   4    1.40    1.70
  11   1  -3    8.70    3.30
 -11  -1   3    3.80    2.00
 -11  -1   2    7.40    1.50
  11   1  -1   -2.90    3.20
 -11  -1   1    6.90    1.50
  11   1   0   -7.30    2.60
 -11  -1   0    3.50    1.20
  11   1   1   -3.50    3.00
 -11  -1  -1    9.80    4.20
  11   1   2   -2.10    2.60
 -11  -1  -2  -10.80    3.20
  11   1   3   -6.10    3.70
 -11  -1  -3   -5.50    2.50
  11   1   4    0.40    1.60
 -11  -1  -4    1.80    2.20
  11   1   5    1.20    2.30
  11   1   6    4.60    2.60
  11   1   7    5.60    2.10
  11   1   8   -2.40    1.60
  11   1   9    2.40    2.10
  11   1  10    2.30    3.60
  11   2  -8    1.80    2.20
 -11  -2   8   -0.80    2.30
  11   2  -7    8.60    2.20
 -11  -2   7    0.30    2.00
  11   2  -6   -1.10    3.10
 -11  -2   6    0.30    2.10
  11   2  -5    2.30    2.80
 -11  -2   5   10.10    2.80
 -11  -2   4   10.20    2.20
  11   2  -3    9.30    3.20
 -11  -2   3    8.20    2.00
  11   2  -2   -3.40    2.10
 -11  -2   2    0.40    1.70
  11   2  -1    1.10    2.10
 -11  -2   1    0.10    1.40
  11   2   0    3.20    2.20
 -11  -2   0    9.80    1.70
  11   2   1    6.00    2.40
 -11  -2  -1    2.40    1.20
  11   2   2    2.90    3.20
 -11  -2  -2    7.50    1.30
  11   2   3   11.40    3.20
 -11  -2  -3    0.40    0.90
  11   2   4  -13.50    3.40
 -11  -2  -4   -1.80    3.30
  11   2   5    1.00    1.90
  11   2   6    8.30    2.30
  11   2   7    1.60    1.60
  11   2   8   -1.10    1.70
  11   2   9   -3.60    2.20
  11   2  10   -4.60    3.30
  11   2  11   -3.40    3.80
  11   3  -8    7.60    3.20
 -11  -3   8    0.50    2.10
  11   3  -7   -2.30    3.10
 -11  -3   7    2.40    2.10
  11   3  -6    3.60    3.00
 -11  -3   6    3.40    2.10
  11   3  -5    0.80    3.00
 -11  -3   5    1.30    1.90
  11   3  -4   -6.40    3.00
 -11  -3   4   -2.70    1.90
  11   3  -3   12.50    3.40
 -11  -3   3   -3.00    1.90
  11   3  -2   16.90    2.70
 -11  -3   2    8.40    1.70
  11   3  -1   -5.10    2.40
  11   3   0   -0.70    2.10
 -11  -3   0   -2.20    3.20
  11   3   1   -1.30    2.20
 -11  -3  -1    5.70    1.50
  11   3   2   -3.20    2.20
 -11  -3  -2    0.60    1.20
  11   3   3   -6.10    3.10
 -11  -3  -3    0.70    1.30
  11   3   4    5.20    3.40
 -11  -3  -4   14.30    1.50
  11   3   5    4.30    2.00
 -11  -3  -5    2.40    1.30
  11   3   6    3.80    1.80
 -11  -3  -6    1.00    1.10
  11   3   7   -1.60    1.70
 -11  -3  -7    1.80    1.40
  11   3   8   -1.70    2.80
 -11  -3  -8   -2.10    1.00
  11   3   9    2.80    1.70
  11   3  10   -5.00    3.30
  11   3  11   33.80    4.30
  11   4  -8    4.60    2.20
 -11  -4   8    3.40    2.00
  11   4  -7    6.10    2.40
 -11  -4   7   13.30    2.60
  11   4  -6    3.10    3.20
 -11  -4   6    0.00    2.20
  11   4  -5    0.50    3.10
 -11  -4   5    6.10    2.20
  11   4  -4   10.20    3.50
 -11  -4   4   19.30    2.00
 -11  -4   3    8.00    2.20
  11   4  -2   13.10    3.60
 -11  -4   2    2.20    1.30
  11   4  -1   10.20    2.50
 -11  -4   1    8.90    2.00
  11   4   0    2.10    2.20
 -11  -4   0    4.90    1.30
  11   4   1    4.00    2.20
 -11  -4  -1   -0.90    1.50
  11   4   2    7.10    3.40
 -11  -4  -2   -0.30    1.30
  11   4   3    7.10    3.60
 -11  -4  -3    9.40    1.60
  11   4   4    3.30    2.40
 -11  -4  -4   -0.90    1.30
  11   4   5    6.30    1.70
 -11  -4  -5   10.80    1.90
  11   4   6    6.70    1.90
 -11  -4  -6    3.10    1.50
  11   4   7    1.40    2.10
 -11  -4  -7    3.80    1.60
  11   4   8   12.60    2.40
 -11  -4  -8   13.90    2.00
  11   4   9   -3.50    2.50
 -11  -4  -9    8.20    2.20
  11   4  10    3.20    2.40
  11   4  11    5.20    2.60
 -11  -4 -11    1.50    1.60
  11   5  -8   11.50    3.60
 -11  -5   8   16.30    2.90
  11   5  -7    3.70    2.20
 -11  -5   7   14.70    2.10
  11   5  -6    2.60    2.60
 -11  -5   6    3.20    1.70
  11   5  -5   11.90    3.70
 -11  -5   5    3.80    2.30
  11   5  -4    5.80    1.80
 -11  -5   4    2.40    1.80
  11   5  -3   12.80    3.50
 -11  -5   3    6.10    1.80
  11   5  -2   -2.40    2.30
 -11  -5   2    0.60    1.30
  11   5  -1   -0.80    2.30
 -11  -5   1    4.00    2.00
  11   5   0   -6.20    2.20
 -11  -5   0    4.00    1.90
  11   5   1   14.40    3.70
 -11  -5  -1    1.60    1.40
  11   5   2    9.80    3.60
 -11  -5  -2    7.30    1.50
  11   5   3    7.30    2.60
 -11  -5  -3    9.80    1.60
  11   5   4   -5.70    3.90
 -11  -5  -4    3.50    1.10
  11   5   5   12.20    2.80
 -11  -5  -5   17.90    2.10
  11   5   6    2.50    2.00
 -11  -5  -6    5.80    2.10
  11   5   7    5.70    1.70
  11   5   8    8.30    2.90
 -11  -5  -8   -0.10    1.90
  11   5   9   14.20    3.90
 -11  -5  -9   13.30    2.20
  11   5  10   -7.10    3.70
 -11  -5 -10   -0.60    1.70
  11   5  11    3.20    3.80
 -11  -5 -11    3.90    2.10
  11   6  -8   12.70    2.70
 -11  -6   8   18.70    2.90
  11   6  -7   -2.80    1.40
 -11  -6   7    2.60    1.80
  11   6  -6   11.00    2.40
 -11  -6   6    2.40    1.90
  11   6  -5    2.60    1.90
 -11  -6   5   -1.00    1.60
  11   6  -4    6.90    2.30
 -11  -6   4    3.90    2.30
  11   6  -3   -4.40    2.10
 -11  -6   3   -2.20    1.40
  11   6  -2    4.60    1.70
 -11  -6   2    6.10    1.70
  11   6  -1    7.30    2.10
 -11  -6   1    2.90    2.00
  11   6   0    1.20    1.50
 -11  -6   0    8.50    1.50
  11   6   1    5.10    1.50
 -11  -6  -1   10.30    1.70
  11   6   2   11.00    2.60
 -11  -6  -2    3.50    1.70
  11   6   3   -4.50    3.60
 -11  -6  -3    0.70    1.50
  11   6   4    2.20    1.60
 -11  -6  -4   -0.90    1.40
  11   6   5    1.10    1.80
 -11  -6  -5    0.20    2.20
  11   6   6    1.40    1.40
 -11  -6  -6   -0.90    1.70
 -11  -6  -7   -2.60    2.20
 -11  -6  -8    2.10    2.10
  11   6   9   -2.20    3.60
 -11  -6  -9    2.40    2.20
  11   6  10   -5.90    3.60
 -11  -6 -10    0.80    2.30
  11   6  11    0.40    3.90
 -11  -6 -11    5.70    1.90
  11   7  -8    7.60    2.60
 -11  -7   8    1.10    2.30
  11   7  -7    9.20    2.10
 -11  -7   7    0.70    1.90
  11   7  -6    9.30    2.40
 -11  -7   6    0.50    1.80
  11   7  -5    6.40    1.80
 -11  -7   5   -2.50    1.60
  11   7  -4    1.30    1.90
 -11  -7   4   -4.40    2.00
  11   7  -3    2.80    1.90
 -11  -7   3   -1.50    1.50
  11   7  -2   -0.90    2.30
 -11  -7   2   -1.00    1.60
  11   7  -1   -0.30    1.80
 -11  -7   1    0.00    1.40
  11   7   0    4.80    1.70
 -11  -7   0    3.40    1.50
  11   7   1    4.50    1.80
 -11  -7  -1   -0.40    1.30
  11   7   2    3.90    2.00
 -11  -7  -2   -0.70    1.40
  11   7   3    4.30    1.90
 -11  -7  -3    6.10    2.90
  11   7   4   -2.00    3.20
 -11  -7  -4   -0.70    1.70
  11   7   5    2.40    2.60
 -11  -7  -5    5.20    2.10
 -11  -7  -7    2.80    1.90
  11   7   8   -1.50    3.70
 -11  -7  -8   -2.70    2.50
  11   7   9    1.20    2.50
 -11  -7  -9    4.40    1.90
  11   7  10    3.10    2.70
 -11  -7 -10   -4.60    2.70
  11   8  -7   -7.70    2.40
 -11  -8   7    1.20    2.50
  11   8  -6   -2.00    1.80
 -11  -8   6    9.10    1.90
  11   8  -5    6.20    2.60
 -11  -8   5    3.60    2.00
  11   8  -4   -0.30    1.90
 -11  -8   4    5.70    1.90
  11   8  -3   -2.50    2.20
 -11  -8   3   -1.90    1.70
  11   8  -2    7.00    2.60
 -11  -8   2    4.50    1.90
  11   8  -1   10.90    2.10
 -11  -8   1    2.10    1.50
  11   8   0   10.70    2.10
 -11  -8   0   19.20    3.50
  11   8   1   11.00    3.20
 -11  -8  -1   11.90    3.20
  11   8   2    7.00    2.10
 -11  -8  -2   -3.50    1.90
  11   8   3    2.20    2.70
 -11  -8  -3    1.80    2.80
  11   8   4    4.30    2.30
 -11  -8  -4    1.90    2.60
  11   8   5    3.60    1.60
 -11  -8  -5    1.10    1.80
  11   8   6    8.60    3.00
 -11  -8  -6    1.60    2.90
 -11  -8  -7    5.00    2.10
 -11  -8  -8    3.30    2.80
  11   8   9   -2.00    2.50
 -11  -8  -9    7.40    3.00
  11   8  10   -2.20    2.90
  11   9  -6    3.40    2.60
 -11  -9   6    1.50    1.90
  11   9  -5   -0.90    1.80
 -11  -9   5    3.20    1.90
  11   9  -4   -5.30    2.60
 -11  -9   4    8.30    3.70
  11   9  -3   -1.00    2.00
 -11  -9   3   -5.10    2.40
  11   9  -2    4.80    2.10
 -11  -9   2   15.40    3.60
  11   9  -1    5.30    2.70
 -11  -9   1    9.40    3.40
  11   9   0    1.00    1.70
 -11  -9   0    0.40    2.40
  11   9   1    0.60    2.50
 -11  -9  -1    3.10    3.00
  11   9   2   -2.30    1.80
 -11  -9  -2    4.60    2.40
  11   9   3    2.30    1.90
 -11  -9  -3    7.60    3.30
  11   9   4    5.70    2.50
 -11  -9  -4    2.20    2.20
  11   9   5   -3.70    3.20
 -11  -9  -5    3.00    2.90
  11   9   6    4.20    1.60
 -11  -9  -6   -5.30    2.10
 -11  -9  -7   -0.50    2.90
 -11  -9  -8    2.10    2.90
  11  10  -4   -2.00    1.90
 -11 -10   4    7.90    3.70
  11  10  -3   -5.10    2.30
 -11 -10   3   -5.00    2.50
  11  10  -2    3.50    2.20
 -11 -10   2   10.90    3.70
  11  10  -1   -0.90    1.90
 -11 -10   1   -1.40    2.40
  11  10   0    3.00    2.10
 -11 -10   0   -4.70    3.40
  11  10   1    2.80    1.90
 -11 -10  -1    0.50    2.20
  11  10   2    6.10    2.20
  11  10   3   13.80    2.80
 -11 -10  -3    2.80    2.40
  11  10   4    4.80    2.20
  11  10   5   -0.20    2.40
 -11 -10  -5    8.80    2.30
  11  10   6    4.20    1.90
  11  10   7   -1.30    2.50
  11  11  -1    5.20    2.70
 -11 -11   1   -5.30    2.30
  11  11   0    4.20    1.80
 -11 -11   0    1.10    2.50
  11  11   1    3.00    2.60
 -11 -11  -1   16.90    4.10
  11  11   2    0.00    1.80
 -11 -11  -2   -0.30    2.00
  11  11   3   -1.70    1.80
 -11 -11  -3    5.50    3.40
 -11 -11  -4    5.70    2.40
  12   0   1   20.20    2.90
  12   0   2  971.00   49.20
 -12   0  -2  936.50   45.40
  12   1  -2   14.10    2.50
 -12  -1   2   14.70    4.70
  12   1  -1  398.50   21.30
 -12  -1   1  432.90   23.40
  12   1   0    8.50    2.70
 -12  -1   0    1.60    2.90
  12   1   1  645.90   32.00
 -12  -1  -1  609.50   29.90
  12   1   2    8.90    3.40
 -12  -1  -2   -2.60    3.70
  12   1   3  316.70   15.80
 -12  -1  -3  267.50   14.50
  12   1   4    6.80    2.10
 -12  -1  -4    6.40    3.80
  12   1   5  221.40    9.10
  12   1   6   86.10    5.10
  12   2  -4    3.50    2.50
 -12  -2   4   -4.70    4.30
  12   2  -3   -1.20    2.40
 -12  -2   3    1.20    1.70
  12   2  -2   82.60    6.50
 -12  -2   2   77.60    3.90
  12   2  -1   34.10    4.30
 -12  -2   1   17.00    2.00
  12   2   0    1.20    3.10
 -12  -2   0    6.40    3.30
  12   2   1    3.30    3.20
 -12  -2  -1    1.40    3.60
  12   2   2   15.80    3.00
 -12  -2  -2   22.90    4.30
  12   2   3    9.10    3.50
 -12  -2  -3    9.70    3.60
  12   2   4    9.80    2.60
 -12  -2  -4   13.90    3.30
  12   2   5   17.50    2.10
  12   2   6    3.20    2.00
  12   2   7   17.90    2.40
  12   3  -5   19.80    4.20
 -12  -3   5   29.90    2.80
  12   3  -4   65.00    6.00
 -12  -3   4   84.20    4.70
  12   3  -3   -1.70    3.30
 -12  -3   3    3.60    2.10
  12   3  -2    4.20    2.50
 -12  -3   2   10.10    2.30
  12   3  -1   -5.90    2.20
 -12  -3   1    5.50    2.10
  12   3   0   -1.60    2.20
 -12  -3   0    2.90    1.60
  12   3   1    2.10    3.80
 -12  -3  -1    1.80    1.40
  12   3   2    5.20    3.50
 -12  -3  -2    7.60    1.60
  12   3   3   -3.50    2.60
 -12  -3  -3    4.50    1.20
  12   3   4    1.50    1.80
 -12  -3  -4   -1.10    3.20
  12   3   5    2.30    1.70
  12   3   6   39.40    4.50
  12   3   7   38.60    3.00
  12   3   8   22.80    2.60
  12   4  -5   62.50    5.80
 -12  -4   5   77.60    4.80
  12   4  -4  183.70   16.50
 -12  -4   4  183.70   17.70
  12   4  -3   58.60    6.30
 -12  -4   3   34.70    3.10
  12   4  -2  384.50   27.90
 -12  -4   2  300.40   13.90
  12   4  -1    6.30    2.90
 -12  -4   1    7.20    1.80
  12   4   0  119.00   16.60
 -12  -4   0  134.10   10.00
  12   4   1    9.20    3.60
 -12  -4  -1    2.70    1.70
  12   4   2  144.00   13.90
 -12  -4  -2  147.10    6.70
  12   4   3   -4.00    2.30
 -12  -4  -3    5.20    1.40
  12   4   4  109.20    5.90
 -12  -4  -4  111.30    4.70
  12   4   5   23.20    2.60
 -12  -4  -5   19.00    2.20
  12   4   6   49.60    3.60
 -12  -4  -6   65.60    4.30
  12   4   7  118.60    5.90
  12   4   8   45.80    3.50
  12   5  -5  263.60   14.60
 -12  -5   5  238.00   14.80
  12   5  -4   11.70    3.00
 -12  -5   4   13.40    3.10
  12   5  -3  577.30   28.30
 -12  -5   3  555.60   19.40
  12   5  -2   21.70    4.50
 -12  -5   2    2.60    1.80
  12   5  -1  687.60   34.20
 -12  -5   1  723.60   35.30
 -12  -5   0   10.20    2.00
  12   5   1  632.00   31.10
 -12  -5  -1  556.60   18.90
  12   5   2   21.30    3.60
 -12  -5  -2   15.00    2.20
  12   5   3  878.50   41.70
 -12  -5  -3  929.00   29.90
  12   5   4   14.10    2.40
 -12  -5  -4   23.10    3.50
  12   5   5 1089.40   35.70
 -12  -5  -5 1129.30   51.40
  12   5   6   15.30    2.30
 -12  -5  -6    0.80    2.00
  12   5   7  650.90   31.70
 -12  -5  -7  749.60   33.50
  12   5   8   12.20    4.40
 -12  -5  -8    1.10    1.90
  12   6  -5  182.10   11.10
 -12  -6   5  177.10    7.60
  12   6  -4 1098.30   52.50
 -12  -6   4 1146.50   54.80
  12   6  -3  187.00   11.40
 -12  -6   3  162.40    9.40
  12   6  -2 1570.40   71.90
 -12  -6   2 1613.40   51.40
  12   6  -1   36.90    4.90
 -12  -6   1   27.70    3.30
  12   6   0 1491.80   66.60
 -12  -6   0 1364.40   43.00
  12   6   1   19.60    3.20
 -12  -6  -1   21.00    2.10
  12   6   2 1071.10   49.20
 -12  -6  -2 1098.70   36.20
 -12  -6  -3   10.80    2.80
  12   6   4 1021.70   46.80
 -12  -6  -4  972.50   45.00
  12   6   5  100.70    6.60
 -12  -6  -5  105.40    6.50
 -12  -6  -6  656.80   30.60
  12   6   7  118.00    8.20
 -12  -6  -7  116.40    7.40
  12   6   8  218.20   12.10
 -12  -6  -8  263.80   13.70
  12   7  -5   37.60    3.90
 -12  -7   5   50.60    3.50
  12   7  -4  145.90    9.80
 -12  -7   4  125.70    5.70
  12   7  -3   48.80    4.90
 -12  -7   3   53.90    3.40
  12   7  -2   26.40    4.40
 -12  -7   2   37.10    2.90
  12   7  -1   47.10    5.20
 -12  -7   1   66.60    3.50
  12   7   0    2.40    2.70
 -12  -7   0    2.00    1.80
  12   7   1  167.60   10.20
 -12  -7  -1  162.80    9.40
  12   7   2   10.10    2.80
 -12  -7  -2    0.20    2.70
  12   7   3  182.10   10.60
 -12  -7  -3  218.60   11.60
  12   7   4   11.40    3.00
 -12  -7  -4    7.10    2.20
  12   7   5  369.30   17.90
 -12  -7  -5  325.70   16.90
  12   7   6  103.60    7.20
 -12  -7  -6   84.30    5.80
  12   7   7  355.30   18.40
 -12  -7  -7  391.50   19.90
  12   7   8   98.30    7.10
  12   8  -4  117.20    7.90
 -12  -8   4  120.70    5.40
  12   8  -3    9.70    4.30
  12   8  -2   65.80    6.20
 -12  -8   2   64.10    5.30
  12   8  -1   27.50    3.70
  12   8   0  104.20    7.60
 -12  -8   0  106.80    7.30
  12   8   1    5.60    2.60
 -12  -8  -1   14.10    2.60
  12   8   2   90.50    6.90
 -12  -8  -2   78.70    5.80
  12   8   3   24.00    3.70
 -12  -8  -3   12.70    2.70
 -12  -8  -4   16.50    3.10
  12   8   5    5.70    2.70
 -12  -8  -5   11.50    2.70
  12   8   6   10.80    3.20
 -12  -8  -6   13.30    3.30
  12   8   7   14.60    3.70
 -12  -8  -7    8.50    2.40
  12   9  -2   46.00    5.10
 -12  -9   2   75.20    6.80
  12   9  -1   52.70    7.10
 -12  -9   1   41.20    7.00
  12   9   0    3.30    3.60
 -12  -9   0   10.60    3.80
  12   9   1  188.80   14.00
 -12  -9  -1  209.20   16.20
  12   9   2    5.50    3.80
 -12  -9  -2   -2.30    3.20
  12   9   3  160.40    9.70
 -12  -9  -3  124.90    8.50
 -12  -9  -4   57.00    5.60
  12   9   5   93.50    6.90
 -12  -9  -5   86.60    6.30
   0   0   0    0.00    0.00
;
_shelx_hkl_checksum              61692

