####################################################################### 
# 
# This file contains crystal structure data downloaded from the 
# Cambridge Structural Database (CSD) hosted by the Cambridge 
# Crystallographic Data Centre (CCDC).
# 
# Full information about CCDC data access policies and citation 
# guidelines are available at http://www.ccdc.cam.ac.uk/access/V1 
# 
# Audit and citation data items may have been added by the CCDC. 
# Please retain this information to preserve the provenance of 
# this file and to allow appropriate attribution of the data. 
# 
#######################################################################

data_2
_audit_block_doi                 10.5517/cc13mr7q
_database_code_depnum_ccdc_archive 'CCDC 1031873'
loop_
_citation_id
_citation_doi
_citation_year
1 10.1039/C4SC03985H 2015
_audit_update_record             
;
2014-10-31 deposited with the CCDC.	2021-12-15 downloaded from the CCDC.
;

_audit_creation_method           SHELXL-2013
_chemical_name_systematic        
;
 ?
;
_chemical_name_common            ?
_chemical_melting_point          ?
_chemical_formula_moiety         'C32 H30 N8 O5 Zn4'
_chemical_formula_sum            'C32 H30 N8 O5 Zn4'
_chemical_formula_weight         868.12

loop_
_atom_type_symbol
_atom_type_description
_atom_type_scat_dispersion_real
_atom_type_scat_dispersion_imag
_atom_type_scat_source
C C 0.0033 0.0016 'International Tables Vol C Tables 4.2.6.8 and 6.1.1.4'
H H 0.0000 0.0000 'International Tables Vol C Tables 4.2.6.8 and 6.1.1.4'
N N 0.0061 0.0033 'International Tables Vol C Tables 4.2.6.8 and 6.1.1.4'
O O 0.0106 0.0060 'International Tables Vol C Tables 4.2.6.8 and 6.1.1.4'
Zn Zn 0.2839 1.4301 'International Tables Vol C Tables 4.2.6.8 and 6.1.1.4'

_space_group_crystal_system      tetragonal
_space_group_IT_number           132
_space_group_name_H-M_alt        'P 42/m c m'
_space_group_name_Hall           '-P 4c 2c'

_shelx_space_group_comment       
;
The symmetry employed for this shelxl refinement is uniquely defined
by the following loop, which should always be used as a source of
symmetry information in preference to the above space-group names.
They are only intended as comments.
;

loop_
_space_group_symop_operation_xyz
'x, y, z'
'-x, -y, z'
'-y, x, z+1/2'
'y, -x, z+1/2'
'-x, y, -z+1/2'
'x, -y, -z+1/2'
'y, x, -z'
'-y, -x, -z'
'-x, -y, -z'
'x, y, -z'
'y, -x, -z-1/2'
'-y, x, -z-1/2'
'x, -y, z-1/2'
'-x, y, z-1/2'
'-y, -x, z'
'y, x, z'

_cell_length_a                   11.5382(14)
_cell_length_b                   11.5382(14)
_cell_length_c                   25.813(3)
_cell_angle_alpha                90
_cell_angle_beta                 90
_cell_angle_gamma                90
_cell_volume                     3436.4(9)
_cell_formula_units_Z            2
_cell_measurement_temperature    223(2)
_cell_measurement_reflns_used    ?
_cell_measurement_theta_min      ?
_cell_measurement_theta_max      ?

_exptl_crystal_description       block
_exptl_crystal_colour            colorless
_exptl_crystal_density_meas      ?
_exptl_crystal_density_method    'not measured'
_exptl_crystal_density_diffrn    0.839
_exptl_crystal_F_000             876
_exptl_transmission_factor_min   0.810
_exptl_transmission_factor_max   0.869
_exptl_crystal_size_max          0.150
_exptl_crystal_size_mid          0.150
_exptl_crystal_size_min          0.100
_exptl_absorpt_coefficient_mu    1.405
_shelx_estimated_absorpt_T_min   0.817
_shelx_estimated_absorpt_T_max   0.872
_exptl_absorpt_correction_type   Multi-scan
_exptl_absorpt_correction_T_min  ?
_exptl_absorpt_correction_T_max  ?
_exptl_absorpt_process_details   'SADABS (Sheldrick, 1996)'

_exptl_special_details           
;
 ?
;

_diffrn_ambient_temperature      223(2)
_diffrn_radiation_wavelength     0.71073
_diffrn_radiation_type           MoK\a
_diffrn_source                   'fine-focus sealed tube'
_diffrn_measurement_device_type  'Bruker APEX area-detector diffractometer'
_diffrn_measurement_method       '\w scans'
_diffrn_detector_area_resol_mean ?
_diffrn_reflns_number            12520
_diffrn_reflns_av_unetI/netI     0.0364
_diffrn_reflns_av_R_equivalents  0.0554
_diffrn_reflns_limit_h_min       -12
_diffrn_reflns_limit_h_max       14
_diffrn_reflns_limit_k_min       -14
_diffrn_reflns_limit_k_max       10
_diffrn_reflns_limit_l_min       -31
_diffrn_reflns_limit_l_max       24
_diffrn_reflns_theta_min         2.368
_diffrn_reflns_theta_max         25.973
_diffrn_reflns_theta_full        25.242
_diffrn_measured_fraction_theta_max 0.998
_diffrn_measured_fraction_theta_full 0.998
_diffrn_reflns_Laue_measured_fraction_max 0.998
_diffrn_reflns_Laue_measured_fraction_full 0.998
_diffrn_reflns_point_group_measured_fraction_max 0.998
_diffrn_reflns_point_group_measured_fraction_full 0.998
_reflns_number_total             1858
_reflns_number_gt                1560
_reflns_threshold_expression     'I > 2\s(I)'
_reflns_Friedel_coverage         0.000
_reflns_Friedel_fraction_max     .
_reflns_Friedel_fraction_full    .

_reflns_special_details          
;
 Reflections were merged by SHELXL according to the crystal
 class for the calculation of statistics and refinement.
 
 _reflns_Friedel_fraction is defined as the number of unique
 Friedel pairs measured divided by the number that would be
 possible theoretically, ignoring centric projections and
 systematic absences.
;

_computing_data_collection       'Bruker SMART'
_computing_cell_refinement       'Bruker SMART'
_computing_data_reduction        'Bruker SMART'
_computing_structure_solution    'SHELXS-97 (Sheldrick, 1990)'
_computing_structure_refinement  'SHELXL-2013 (Sheldrick, 2013)'
_computing_molecular_graphics    'Bruker SHELXTL'
_computing_publication_material  'Bruker SHELXTL'

_refine_special_details          
;
 ?
;
_refine_ls_structure_factor_coef Fsqd
_refine_ls_matrix_type           full
_refine_ls_weighting_scheme      calc
_refine_ls_weighting_details     
;
 w=1/[\s^2^(Fo^2^)+(0.0713P)^2^+14.6552P]
 where P=(Fo^2^+2Fc^2^)/3
;
_atom_sites_solution_primary     direct
_atom_sites_solution_secondary   difmap
_atom_sites_solution_hydrogens   geom
_refine_ls_hydrogen_treatment    constr
_refine_ls_extinction_method     none
_refine_ls_extinction_coef       .
_refine_ls_number_reflns         1858
_refine_ls_number_parameters     83
_refine_ls_number_restraints     5
_refine_ls_R_factor_all          0.0628
_refine_ls_R_factor_gt           0.0524
_refine_ls_wR_factor_ref         0.1609
_refine_ls_wR_factor_gt          0.1545
_refine_ls_goodness_of_fit_ref   1.025
_refine_ls_restrained_S_all      1.038
_refine_ls_shift/su_max          0.000
_refine_ls_shift/su_mean         0.000

loop_
_atom_site_label
_atom_site_type_symbol
_atom_site_fract_x
_atom_site_fract_y
_atom_site_fract_z
_atom_site_U_iso_or_equiv
_atom_site_adp_type
_atom_site_occupancy
_atom_site_site_symmetry_order
_atom_site_calc_flag
_atom_site_refinement_flags_posn
_atom_site_refinement_flags_adp
_atom_site_refinement_flags_occupancy
_atom_site_disorder_assembly
_atom_site_disorder_group
Zn1 Zn 0.59879(4) 0.40121(4) 0.20797(2) 0.0230(3) Uani 1 2 d S T P . .
O1 O 0.5000 0.5000 0.2500 0.0194(15) Uani 1 8 d S T P . .
O2 O 0.5697(3) 0.4303(3) 0.13443(16) 0.0388(11) Uani 1 2 d S T P . .
N1 N 0.5391(3) 0.2475(3) 0.22966(13) 0.0269(7) Uani 1 1 d . . . . .
C1 C 0.5624(4) 0.1366(4) 0.21756(17) 0.0339(10) Uani 1 1 d . . . . .
C2 C 0.5000 0.0649(5) 0.2500 0.0320(13) Uani 1 2 d S T P . .
C3 C 0.6436(6) 0.1073(4) 0.1750(2) 0.0603(17) Uani 1 1 d . . . . .
H3A H 0.6517 0.1734 0.1520 0.090 Uiso 1 1 calc R U . . .
H3B H 0.6136 0.0417 0.1556 0.090 Uiso 1 1 calc R U . . .
H3C H 0.7187 0.0875 0.1894 0.090 Uiso 1 1 calc R U . . .
C4 C 0.5000 0.5000 0.0536(4) 0.065(4) Uani 1 4 d DS T P B .
C6 C 0.5000 0.5000 0.1128(3) 0.036(2) Uani 1 4 d S T P . .
C5 C 0.6066(11) 0.4867(13) 0.0277(3) 0.091(6) Uani 0.5 1 d D . P . .
H5A H 0.6775 0.4817 0.0472 0.109 Uiso 0.25 1 d . U P A 1
C7 C 0.7215(15) 0.490(3) 0.0533(6) 0.068(7) Uani 0.25 1 d D . P B 2
H7A H 0.7228 0.4962 0.0897 0.082 Uiso 0.25 1 calc R U P B 2
C8 C 0.8307(15) 0.485(4) 0.0270(8) 0.105(13) Uani 0.25 1 d D . P B 2
H8A H 0.9005 0.4813 0.0457 0.127 Uiso 0.25 1 calc R U P B 2

loop_
_atom_site_aniso_label
_atom_site_aniso_U_11
_atom_site_aniso_U_22
_atom_site_aniso_U_33
_atom_site_aniso_U_23
_atom_site_aniso_U_13
_atom_site_aniso_U_12
Zn1 0.0229(3) 0.0229(3) 0.0234(4) -0.00077(19) 0.00077(19) 0.0000(3)
O1 0.018(2) 0.018(2) 0.022(4) 0.000 0.000 0.000
O2 0.0463(17) 0.0463(17) 0.024(2) 0.0021(14) -0.0021(14) 0.006(2)
N1 0.0304(18) 0.0168(15) 0.0334(18) 0.0006(14) 0.0040(15) 0.0011(13)
C1 0.037(2) 0.024(2) 0.041(3) -0.0024(18) 0.003(2) 0.0024(18)
C2 0.035(3) 0.017(3) 0.043(3) 0.000 -0.006(3) 0.000
C3 0.081(4) 0.030(3) 0.069(4) -0.009(3) 0.031(3) 0.004(3)
C4 0.086(6) 0.086(6) 0.021(5) 0.000 0.000 0.030(8)
C6 0.043(3) 0.043(3) 0.024(4) 0.000 0.000 -0.005(5)
C5 0.159(15) 0.092(10) 0.021(5) 0.002(5) 0.002(6) 0.077(10)
C7 0.083(18) 0.10(2) 0.022(9) 0.008(12) 0.008(11) 0.000(15)
C8 0.035(12) 0.24(4) 0.038(12) 0.01(2) -0.011(11) 0.00(2)

_geom_special_details            
;
 All esds (except the esd in the dihedral angle between two l.s. planes)
 are estimated using the full covariance matrix.  The cell esds are taken
 into account individually in the estimation of esds in distances, angles
 and torsion angles; correlations between esds in cell parameters are only
 used when they are defined by crystal symmetry.  An approximate (isotropic)
 treatment of cell esds is used for estimating esds involving l.s. planes.
;

loop_
_geom_bond_atom_site_label_1
_geom_bond_atom_site_label_2
_geom_bond_distance
_geom_bond_site_symmetry_2
_geom_bond_publ_flag
Zn1 O1 1.9430(6) . ?
Zn1 O2 1.957(4) . ?
Zn1 N1 1.983(3) . ?
Zn1 N1 1.983(3) 15_665 ?
Zn1 Zn1 3.1471(11) 12_656 ?
Zn1 Zn1 3.1471(11) 11_566 ?
O1 Zn1 1.9430(6) 12_656 ?
O1 Zn1 1.9430(6) 2_665 ?
O1 Zn1 1.9430(6) 11_566 ?
O2 C6 1.267(6) . ?
N1 C1 1.344(5) . ?
N1 N1 1.385(7) 5_655 ?
C1 C2 1.380(5) . ?
C1 C3 1.484(7) . ?
C2 C1 1.380(5) 5_655 ?
C2 C2 1.498(11) 2_655 ?
C4 C5 1.409(11) 15_665 ?
C4 C5 1.409(11) 2_665 ?
C4 C5 1.409(11) 16 ?
C4 C5 1.409(11) . ?
C4 C6 1.528(13) . ?
C6 O2 1.267(6) 2_665 ?
C5 C5 1.428(18) 10 ?
C5 C7 1.483(16) . ?
C5 C5 1.52(3) 15_665 ?
C5 C5 1.96(2) 16 ?
C7 C8 1.432(16) . ?
C8 C8 1.40(4) 10 ?

loop_
_geom_angle_atom_site_label_1
_geom_angle_atom_site_label_2
_geom_angle_atom_site_label_3
_geom_angle
_geom_angle_site_symmetry_1
_geom_angle_site_symmetry_3
_geom_angle_publ_flag
O1 Zn1 O2 109.91(14) . . ?
O1 Zn1 N1 99.41(10) . . ?
O2 Zn1 N1 111.57(11) . . ?
O1 Zn1 N1 99.41(10) . 15_665 ?
O2 Zn1 N1 111.57(11) . 15_665 ?
N1 Zn1 N1 122.8(2) . 15_665 ?
O1 Zn1 Zn1 35.918(9) . 12_656 ?
O2 Zn1 Zn1 123.00(11) . 12_656 ?
N1 Zn1 Zn1 116.95(10) . 12_656 ?
N1 Zn1 Zn1 63.52(10) 15_665 12_656 ?
O1 Zn1 Zn1 35.918(9) . 11_566 ?
O2 Zn1 Zn1 123.00(11) . 11_566 ?
N1 Zn1 Zn1 63.52(10) . 11_566 ?
N1 Zn1 Zn1 116.95(10) 15_665 11_566 ?
Zn1 Zn1 Zn1 61.62(2) 12_656 11_566 ?
Zn1 O1 Zn1 108.165(18) . 12_656 ?
Zn1 O1 Zn1 112.12(4) . 2_665 ?
Zn1 O1 Zn1 108.166(18) 12_656 2_665 ?
Zn1 O1 Zn1 108.165(18) . 11_566 ?
Zn1 O1 Zn1 112.11(4) 12_656 11_566 ?
Zn1 O1 Zn1 108.166(18) 2_665 11_566 ?
C6 O2 Zn1 130.2(5) . . ?
C1 N1 N1 107.8(2) . 5_655 ?
C1 N1 Zn1 135.8(3) . . ?
N1 N1 Zn1 116.12(10) 5_655 . ?
N1 C1 C2 109.0(4) . . ?
N1 C1 C3 121.0(4) . . ?
C2 C1 C3 130.0(4) . . ?
C1 C2 C1 106.3(5) . 5_655 ?
C1 C2 C2 126.8(3) . 2_655 ?
C1 C2 C2 126.8(3) 5_655 2_655 ?
C5 C4 C5 88.0(11) 15_665 2_665 ?
C5 C4 C5 123.2(12) 15_665 16 ?
C5 C4 C5 65.4(13) 2_665 16 ?
C5 C4 C5 65.4(13) 15_665 . ?
C5 C4 C5 123.2(12) 2_665 . ?
C5 C4 C5 88.0(11) 16 . ?
C5 C4 C6 118.4(6) 15_665 . ?
C5 C4 C6 118.4(6) 2_665 . ?
C5 C4 C6 118.4(6) 16 . ?
C5 C4 C6 118.4(6) . . ?
O2 C6 O2 127.7(8) . 2_665 ?
O2 C6 C4 116.2(4) . . ?
O2 C6 C4 116.2(4) 2_665 . ?
C4 C5 C5 118.4(6) . 10 ?
C4 C5 C7 124.4(10) . . ?
C5 C5 C7 116.5(8) 10 . ?
C4 C5 C5 57.3(6) . 15_665 ?
C5 C5 C5 89.999(1) 10 15_665 ?
C7 C5 C5 130.6(13) . 15_665 ?
C4 C5 C5 46.0(6) . 16 ?
C5 C5 C5 89.999(1) 10 16 ?
C7 C5 C5 127.9(12) . 16 ?
C5 C5 C5 89.998(2) 15_665 16 ?
C8 C7 C5 125.0(15) . . ?
C8 C8 C7 118.3(11) 10 . ?

_refine_diff_density_max         0.435
_refine_diff_density_min         -0.423
_refine_diff_density_rms         0.097

_shelxl_version_number           2013-2

_shelx_res_file                  
;
TITL 2 in P4(2)/mcm
CELL 0.71073  11.5382  11.5382  25.8126  90.000  90.000  90.000
ZERR   2.00   0.0014   0.0014   0.0032   0.000   0.000   0.000
LATT  1
SYMM -X, -Y, Z
SYMM -Y, X, 0.5+Z
SYMM Y, -X, 0.5+Z
SYMM -X, Y, 0.5-Z
SYMM X, -Y, 0.5-Z
SYMM Y, X, -Z
SYMM -Y, -X, -Z
SFAC C H N O ZN
UNIT 64 60 16 10 8

L.S. 8
BOND
FMAP 2
PLAN 20
OMIT -3 52
SIZE 0.10 0.15 0.15
TEMP -50
ACTA

EQIV $1 X, Y, -Z
DFIX 1.40 0.02 C4 C5
DFIX 1.40 0.02 C5 C7
DFIX 1.42 0.02 C7 C8
DFIX 2.42 0.04 C5 C8
SADI 0.02 C7 C4 C7 C5_$1

WGHT    0.071300   14.655201
FVAR       1.49204
ZN1   5    0.598785    0.401215    0.207973    10.50000    0.02288    0.02288 =
         0.02336   -0.00077    0.00077   -0.00001
O1    4    0.500000    0.500000    0.250000    10.12500    0.01830    0.01830 =
         0.02161    0.00000    0.00000    0.00000
O2    4    0.569714    0.430286    0.134433    10.50000    0.04625    0.04625 =
         0.02383    0.00207   -0.00207    0.00624
N1    3    0.539141    0.247467    0.229661    11.00000    0.03044    0.01680 =
         0.03339    0.00065    0.00402    0.00107
C1    1    0.562389    0.136596    0.217562    11.00000    0.03722    0.02357 =
         0.04099   -0.00240    0.00345    0.00245
C2    1    0.500000    0.064912    0.250000    10.50000    0.03512    0.01741 =
         0.04347    0.00000   -0.00581    0.00000
C3    1    0.643620    0.107280    0.174958    11.00000    0.08108    0.03039 =
         0.06941   -0.00877    0.03149    0.00374
AFIX 137
H3A   2    0.651666    0.173399    0.152029    11.00000   -1.50000
H3B   2    0.613586    0.041748    0.155623    11.00000   -1.50000
H3C   2    0.718703    0.087532    0.189373    11.00000   -1.50000
AFIX   0
C4    1    0.500000    0.500000    0.053603    10.25000    0.08640    0.08640 =
         0.02114    0.00000    0.00000    0.03047
C6    1    0.500000    0.500000    0.112791    10.25000    0.04264    0.04264 =
         0.02405    0.00000    0.00000   -0.00527
C5    1    0.606580    0.486653    0.027666    10.50000    0.15908    0.09227 =
         0.02148    0.00178    0.00233    0.07733
PART   1
H5A   2   10.677529   10.481720   10.047180    10.25000   -1.20000
PART   2
C7    1    0.721527    0.490041    0.053342    10.25000    0.08269    0.10087 =
         0.02184    0.00832    0.00849    0.00040
AFIX  43
H7A   2    0.722829    0.496157    0.089651    10.25000   -1.20000
AFIX   0
C8    1    0.830673    0.484706    0.027045    10.25000    0.03470    0.24350 =
         0.03824    0.00907   -0.01074   -0.00418
AFIX  43
H8A   2    0.900531    0.481294    0.045719    10.25000   -1.20000
PART   0

AFIX   0
HKLF 4

REM  2 in P4(2)/mcm
REM R1 =  0.0524 for    1560 Fo > 4sig(Fo)  and  0.0628 for all    1858 data
REM     83 parameters refined using      5 restraints

END

WGHT      0.0626      8.6354

REM Highest difference peak  0.435,  deepest hole -0.423,  1-sigma level  0.097
Q1    1   0.5580  0.3191  0.2222  11.00000  0.05    0.43
Q2    1   0.8702  0.3873  0.0000  10.50000  0.05    0.43
Q3    1   0.5657  0.4343  0.0000  10.25000  0.05    0.42
Q4    1   0.5000  0.0000  0.2500  10.25000  0.05    0.41
Q5    1   0.5423  0.4577  0.0249  10.50000  0.05    0.40
Q6    1   0.5000  0.5000  0.0752  10.25000  0.05    0.39
Q7    1   0.7554  0.5012  0.0458  11.00000  0.05    0.37
Q8    1   0.5415  0.4585  0.1969  10.50000  0.05    0.35
Q9    1   0.8593  0.4884  0.0282  11.00000  0.05    0.34
Q10   1   0.4669  0.4669  0.0523  10.50000  0.05    0.33
Q11   1   0.8522  0.3544  0.0073  11.00000  0.05    0.31
Q12   1   0.5047  0.0933  0.2236  11.00000  0.05    0.31
Q13   1   0.5273  0.1660  0.2095  11.00000  0.05    0.30
Q14   1   0.5432  0.0861  0.2465  11.00000  0.05    0.30
Q15   1   0.6082  0.5353  0.0189  11.00000  0.05    0.28
Q16   1   0.6590  0.3410  0.2085  10.50000  0.05    0.28
Q17   1   0.6999  0.1749  0.1694  11.00000  0.05    0.28
Q18   1   0.8503  0.1497  0.0000  10.25000  0.05    0.27
Q19   1   0.6053  0.1228  0.2022  11.00000  0.05    0.27
Q20   1   0.5791  0.1981  0.2191  11.00000  0.05    0.26
;
_shelx_res_checksum              52150

_shelx_hkl_file                  
;
	-2	-1	0	12967	536	16143	-8.85	2.73	1.0000 
	2	1	0	11437	606	14429	-8.85	-2.73	1.0000 
	0	-2	0	160104	1549	50494	-117.14	-9.14	1.0000 
	0	-2	0	152141	1667	46061	-117.14	-9.14	1.0000 
	-1	-2	0	11948	556	15002	-8.83	1.14	1.0000 
	-1	-2	0	11774	540	14807	-8.83	1.14	1.0000 
	1	2	0	12825	600	15983	-8.83	-1.14	1.0000 
	2	2	0	1554	1033	26861	82.17	-12.45	1.0000 
	-2	-2	0	1642	923	27226	82.17	12.45	1.0000 
	3	2	0	28	126	963	23.77	-4.74	1.0000 
	-3	-2	0	11	121	1089	23.77	4.74	1.0000 
	-3	-1	0	8189	220	4553	-15.37	0.2	1.0000 
	0	-3	0	40039	2675	83717	-59.55	0.2	1.0000 
	3	0	0	41344	3022	85571	-59.49	1.49	1.0000 
	-3	0	0	39827	2642	83382	-59.49	-1.49	1.0000 
	3	-1	0	7854	257	4307	-15.33	0.65	1.0000 
	-1	-3	0	7851	197	4292	-15.38	0.99	1.0000 
	-1	-3	0	7258	221	3857	-15.38	0.99	1.0000 
	-2	-3	0	23	121	977	23.88	2.56	1.0000 
	2	3	0	0	135	1269	23.88	-2.56	1.0000 
	3	3	0	3103	412	8157	23	-2.22	1.0000 
	-3	-3	0	2950	374	7907	23	2.22	1.0000 
	-4	-3	0	14135	416	8937	16.26	0.02	1.0000 
	4	3	0	14630	480	9332	16.26	-0.02	1.0000 
	4	2	0	1554	284	4229	-16.52	5.64	1.0000 
	-4	-2	0	1397	235	3967	-16.52	-5.64	1.0000 
	-4	-1	0	20044	537	14543	-13.99	-0.66	1.0000 
	4	1	0	19443	646	14032	-13.99	0.66	1.0000 
	1	-4	0	18866	560	13617	-13.83	0.11	1.0000 
	0	-4	0	34331	1241	34691	-0.88	4.69	1.0000 
	4	0	0	36940	1412	37299	-0.6	-0.36	1.0000 
	-4	0	0	36402	1200	36758	-0.6	0.36	1.0000 
	-1	-4	0	20216	591	14707	-14	0.12	1.0000 
	4	-1	0	20663	674	15145	-13.77	-0.89	1.0000 
	-1	-4	0	20316	571	14792	-14	0.12	1.0000 
	2	4	0	1548	260	4162	-16.33	4.88	1.0000 
	-2	-4	0	1490	210	4066	-16.33	-4.88	1.0000 
	-2	-4	0	1356	244	3841	-16.33	-4.88	1.0000 
	4	-2	0	1207	270	3583	-16.28	-5.05	1.0000 
	-3	-4	0	15244	456	9818	16.26	0.47	1.0000 
	3	4	0	15533	495	10050	16.26	-0.47	1.0000 
	4	4	0	79958	3474	100000	22.1	-5.4	1.0000 
	-4	-4	0	70836	3070	89764	22.1	5.4	1.0000 
	5	4	0	47990	1815	47126	1.29	-0.58	1.0000 
	-5	-4	0	45091	1589	44253	1.29	0.58	1.0000 
	5	3	0	3336	255	2856	-2.81	1.14	1.0000 
	-5	-3	0	3558	227	3062	-2.81	-1.14	1.0000 
	5	2	0	4191	231	2417	-10.26	3.52	1.0000 
	-5	-2	0	3926	178	2216	-10.26	-3.52	1.0000 
	5	1	0	26676	1127	26711	-0.12	-0.68	1.0000 
	1	-5	0	27444	985	27421	0.04	0.14	1.0000 
	1	-5	0	25681	1002	25659	0.04	0.14	1.0000 
	-5	-1	0	26727	941	26762	-0.12	0.68	1.0000 
	5	0	0	25330	1292	32134	13.56	-1.26	1.0000 
	0	-5	0	25123	1160	31906	13.47	0.02	1.0000 
	0	-5	0	24092	1132	30743	13.47	0.02	1.0000 
	5	-1	0	26140	1130	26071	0.13	0.19	1.0000 
	-1	-5	0	26519	992	26573	-0.12	0.12	1.0000 
	-1	-5	0	28273	1009	28328	-0.12	0.12	1.0000 
	-2	-5	0	4530	219	2684	-10.3	-0.99	1.0000 
	-2	-5	0	4226	165	2451	-10.3	-0.99	1.0000 
	5	-2	0	4732	246	2705	-11.08	-2.53	1.0000 
	3	5	0	3690	251	3189	-2.84	0.31	1.0000 
	5	-3	0	3437	268	2890	-3.2	-0.81	1.0000 
	-3	-5	0	3135	225	2675	-2.84	-0.31	1.0000 
	-4	-5	0	45164	1580	44269	1.36	1.08	1.0000 
	4	5	0	45927	1757	45025	1.36	-1.08	1.0000 
	-5	-5	0	51640	1983	55702	5.84	0.38	1.0000 
	5	5	0	55629	2250	59842	5.84	-0.38	1.0000 
	-6	-5	0	32251	1156	28845	6.47	0.73	1.0000 
	6	5	0	35219	1333	31655	6.47	-0.73	1.0000 
	-6	-4	0	19046	800	18561	-1.04	-2.93	1.0000 
	6	4	0	21471	953	20957	-1.04	2.93	1.0000 
	-6	-3	0	1177	196	2109	-7.71	-0.85	1.0000 
	6	3	0	884	233	1710	-7.71	0.85	1.0000 
	6	2	0	6402	428	6651	-1.06	-0.63	1.0000 
	2	-6	0	6046	364	6269	-0.93	-0.36	1.0000 
	-6	-2	0	6242	344	6488	-1.06	0.63	1.0000 
	1	-6	0	43562	1611	44340	1.23	0.26	1.0000 
	6	1	0	41963	1771	43141	1.91	0.17	1.0000 
	1	-6	0	42865	1552	43637	1.23	0.26	1.0000 
	-6	-1	0	44510	1507	45723	1.91	-0.17	1.0000 
	6	0	0	49813	1938	48913	1.34	0.31	1.0000 
	0	-6	0	47929	1754	47023	1.34	0.96	1.0000 
	0	-6	0	52053	1718	51109	1.34	0.96	1.0000 
	-1	-6	0	42063	1570	43280	1.94	0.48	1.0000 
	6	-1	0	42912	1755	43715	1.3	-0.18	1.0000 
	-1	-6	0	42997	1556	44227	1.94	0.48	1.0000 
	-2	-6	0	6424	392	6699	-1.13	-0.07	1.0000 
	-2	-6	0	6728	324	7010	-1.13	-0.07	1.0000 
	6	-2	0	6190	438	6413	-0.92	-0.29	1.0000 
	-3	-6	0	896	215	1723	-7.64	-1.23	1.0000 
	3	6	0	880	206	1701	-7.64	1.23	1.0000 
	6	-3	0	795	224	1542	-7.34	-0.9	1.0000 
	-4	-6	0	18935	811	18521	-0.94	-1.22	1.0000 
	4	6	0	21150	905	20712	-0.94	1.22	1.0000 
	6	-4	0	18590	914	18113	-1.06	-2.3	1.0000 
	-5	-6	0	32365	1097	28950	6.45	1.17	1.0000 
	5	6	0	28829	1190	25611	6.45	-1.17	1.0000 
	-6	-6	0	13993	688	14216	0.5	1.51	1.0000 
	6	6	0	14648	779	14876	0.5	-1.51	1.0000 
	7	6	0	6324	466	6192	0.57	0.28	1.0000 
	-7	-6	0	6612	429	6477	0.57	-0.28	1.0000 
	7	5	0	12545	688	12016	-1.6	-0.15	1.0000 
	-7	-5	0	11472	574	10966	-1.6	0.15	1.0000 
	-7	-4	0	8214	469	8450	-0.81	-1.14	1.0000 
	7	4	0	8885	569	9131	-0.81	1.14	1.0000 
	3	-7	0	432	106	237	-3.65	0.55	1.0000 
	7	3	0	679	149	401	-4.04	-0.15	1.0000 
	-7	-3	0	565	109	315	-4.04	0.15	1.0000 
	2	-7	0	47	66	50	0.06	0.51	1.0000 
	-7	-2	0	122	80	105	-0.74	0.69	1.0000 
	7	2	0	140	103	122	-0.74	-0.69	1.0000 
	2	-7	0	76	93	81	0.06	0.51	1.0000 
	1	-7	0	7066	405	6888	0.73	-0.31	1.0000 
	1	-7	0	7199	367	7019	0.73	-0.31	1.0000 
	7	1	0	7294	485	7193	0.39	-0.1	1.0000 
	-7	-1	0	6400	346	6305	0.39	0.1	1.0000 
	0	-7	0	6995	409	6610	-1.55	-0.18	1.0000 
	0	-7	0	6614	336	6240	-1.55	-0.18	1.0000 
	7	0	0	7491	471	7079	-1.61	-0.02	1.0000 
	-1	-7	0	6618	410	6509	0.45	-0.05	1.0000 
	7	-1	0	7182	468	6990	0.76	-0.07	1.0000 
	-1	-7	0	6775	332	6665	0.45	-0.05	1.0000 
	7	-2	0	197	102	204	0.02	0.59	1.0000 
	-2	-7	0	165	58	148	-0.81	1.02	1.0000 
	-2	-7	0	4	94	-4	-0.81	1.02	1.0000 
	7	-3	0	626	154	386	-3.63	0.39	1.0000 
	-3	-7	0	473	125	249	-4.02	0.4	1.0000 
	4	7	0	7831	508	8083	-0.9	0.84	1.0000 
	-4	-7	0	7623	482	7871	-0.9	-0.84	1.0000 
	7	-4	0	8725	577	9080	-1.19	-1.27	1.0000 
	7	-5	0	12586	727	12163	-1.27	-0.13	1.0000 
	-5	-7	0	12410	633	11860	-1.66	-0.17	1.0000 
	5	7	0	13040	680	12476	-1.66	0.17	1.0000 
	6	7	0	6413	451	6252	0.68	0.07	1.0000 
	-6	-7	0	6119	411	5962	0.68	-0.07	1.0000 
	-7	-7	0	6864	531	8908	7.69	0.17	1.0000 
	7	7	0	5809	549	7699	7.69	-0.17	1.0000 
	8	7	0	780	189	621	2.37	-1.59	1.0000 
	8	6	0	460	136	240	3.96	-0.34	1.0000 
	-8	-6	0	432	132	220	3.96	0.34	1.0000 
	8	5	0	91	96	44	-1.71	1.3	1.0000 
	-8	-5	0	197	107	125	-1.71	-1.3	1.0000 
	8	4	0	94	117	175	-2.48	-0.25	1.0000 
	4	-8	0	70	108	156	-2.79	-0.22	1.0000 
	-8	-4	0	26	101	74	-2.48	0.25	1.0000 
	-8	-3	0	43	73	83	-1.6	0.8	1.0000 
	3	-8	0	107	102	149	-0.81	1.01	1.0000 
	8	3	0	7	84	-26	-1.6	-0.8	1.0000 
	3	-8	0	23	72	44	-0.81	1.01	1.0000 
	8	2	0	3990	353	3580	-2.23	-0.11	1.0000 
	-8	-2	0	4328	277	3901	-2.23	0.11	1.0000 
	2	-8	0	4619	321	4198	-2.13	0.72	1.0000 
	2	-8	0	4087	268	3692	-2.13	0.72	1.0000 
	8	1	0	6872	491	6919	-0.19	-0.16	1.0000 
	1	-8	0	5981	347	5934	0.22	-0.31	1.0000 
	-8	-1	0	5951	346	5994	-0.19	0.16	1.0000 
	1	-8	0	6046	405	5998	0.22	-0.31	1.0000 
	0	-8	0	7651	469	7791	0.56	-0.85	1.0000 
	8	0	0	7812	539	7963	0.56	0.09	1.0000 
	8	-1	0	6499	482	6445	0.22	0.1	1.0000 
	-1	-8	0	5830	410	5882	-0.22	-0.24	1.0000 
	8	-2	0	4389	378	3961	-2.21	0.05	1.0000 
	-2	-8	0	4332	328	3913	-2.19	0.77	1.0000 
	8	-3	0	3	97	-20	-0.77	0.95	1.0000 
	-3	-8	0	7	94	-83	-1.59	0.87	1.0000 
	-4	-8	0	27	116	81	-2.59	-0.25	1.0000 
	8	-4	0	88	137	181	-2.8	-0.01	1.0000 
	8	-5	0	83	120	39	-1.59	-1.7	1.0000 
	5	8	0	47	70	15	-1.69	1.43	1.0000 
	-5	-8	0	32	114	7	-1.69	-1.43	1.0000 
	6	8	0	453	110	227	4.11	-0.48	1.0000 
	-6	-8	0	519	143	275	4.11	0.48	1.0000 
	8	-6	0	189	143	75	3.4	0.26	1.0000 
	-7	-8	0	445	152	331	2.49	2.23	1.0000 
	7	8	0	289	116	195	2.49	-2.23	1.0000 
	8	-7	0	411	187	333	1.61	1.49	1.0000 
	-8	-8	0	15	106	1	1.88	-0.34	1.0000 
	8	-8	0	20	153	-6	2.95	-0.55	1.0000 
	8	8	0	113	78	61	1.88	0.34	1.0000 
	9	8	0	464	161	441	1.22	2.26	1.0000 
	-9	-8	0	459	155	436	1.22	-2.26	1.0000 
	-9	-7	0	37	77	-50	-4	0.76	1.0000 
	9	7	0	37	77	-22	-4	-0.76	1.0000 
	-9	-6	0	2730	306	3233	2.94	1.25	1.0000 
	9	6	0	2901	363	3419	2.94	-1.25	1.0000 
	5	-9	0	6079	394	5627	2.05	-0.56	1.0000 
	9	5	0	5609	465	5196	1.96	0.58	1.0000 
	-9	-5	0	5652	384	5237	1.96	-0.58	1.0000 
	-9	-4	0	2260	252	2090	-1.27	0.28	1.0000 
	9	4	0	2426	328	2250	-1.27	-0.28	1.0000 
	4	-9	0	2812	290	2682	-0.96	0.72	1.0000 
	9	3	0	154	131	143	0.3	-0.11	1.0000 
	3	-9	0	343	136	284	1.2	-0.21	1.0000 
	-9	-3	0	238	114	224	0.3	0.11	1.0000 
	-9	-2	0	6271	372	6244	0.11	0.01	1.0000 
	9	2	0	5749	476	5723	0.11	-0.01	1.0000 
	2	-9	0	5985	423	5995	-0.03	-0.44	1.0000 
	1	-9	0	13106	661	12734	-1.11	0.25	1.0000 
	9	1	0	12241	742	11983	-0.78	0.1	1.0000 
	9	0	0	11227	754	12390	-3.62	0.51	1.0000 
	0	-9	0	11345	656	12508	-3.59	0.28	1.0000 
	9	-1	0	14573	806	14161	-1.17	0.26	1.0000 
	-1	-9	0	12272	669	12018	-0.77	-0.09	1.0000 
	9	-2	0	5764	482	5778	-0.05	-0.37	1.0000 
	-2	-9	0	5619	418	5578	0.19	-0.25	1.0000 
	9	-3	0	250	152	203	1.15	-0.3	1.0000 
	-3	-9	0	524	179	502	0.28	0.3	1.0000 
	9	-4	0	1756	304	1626	-1.13	0.41	1.0000 
	-4	-9	0	2133	296	1984	-1.24	0.8	1.0000 
	-5	-9	0	6582	451	6128	1.98	-0.53	1.0000 
	9	-5	0	5763	501	5360	1.91	-0.8	1.0000 
	9	-6	0	3048	430	3564	2.99	0.23	1.0000 
	6	9	0	2671	323	3135	2.95	0.54	1.0000 
	-6	-9	0	1985	322	2387	2.95	-0.54	1.0000 
	-7	-9	0	29	121	108	-3.8	0.08	1.0000 
	7	9	0	32	61	-6	-3.8	-0.08	1.0000 
	9	-7	0	26	126	4	-4.58	0.6	1.0000 
	-8	-9	0	441	155	406	1.39	-2.13	1.0000 
	8	9	0	751	186	709	1.39	2.13	1.0000 
	9	-8	0	342	207	336	0.65	-1.8	1.0000 
	-9	-9	0	6923	521	7240	1.37	-2.04	1.0000 
	9	-9	0	7203	634	7377	0.77	-1.55	1.0000 
	-10	-9	0	8163	567	8033	0.44	0.54	1.0000 
	9	-10	0	8185	675	8055	0.51	-0.38	1.0000 
	10	8	0	494	184	436	-0.82	1.09	1.0000 
	-10	-8	0	677	155	609	-0.82	-1.09	1.0000 
	10	7	0	9	62	-34	-1.13	1.69	1.0000 
	-10	-7	0	9	78	-60	-1.13	-1.69	1.0000 
	10	6	0	4333	439	4336	0.06	0.56	1.0000 
	-10	-6	0	4410	384	4413	0.06	-0.56	1.0000 
	6	-10	0	5128	378	5131	-0.03	0.17	1.0000 
	-10	-5	0	14233	735	14313	0.1	1.3	1.0000 
	5	-10	0	15609	749	15428	-0.57	0.84	1.0000 
	10	5	0	14459	895	14540	0.1	-1.3	1.0000 
	-10	-4	0	12271	630	11910	1.05	0.67	1.0000 
	10	4	0	13091	800	12718	1.05	-0.67	1.0000 
	4	-10	0	12126	652	11831	0.93	-0.39	1.0000 
	3	-10	0	5022	389	5104	0.41	-0.73	1.0000 
	-10	-3	0	4780	341	4758	-0.07	-0.8	1.0000 
	10	3	0	4471	441	4450	-0.07	0.8	1.0000 
	-10	-2	0	1082	182	1087	0.05	-0.08	1.0000 
	10	2	0	1350	278	1355	0.05	0.08	1.0000 
	2	-10	0	942	215	990	0.55	-0.33	1.0000 
	10	1	0	9695	664	9533	0.54	-0.15	1.0000 
	1	-10	0	10002	590	9969	0.11	-0.03	1.0000 
	10	0	0	12205	764	11653	-1.69	-0.04	1.0000 
	0	-10	0	11576	649	11071	-1.61	0.21	1.0000 
	10	-1	0	9201	654	9187	0.04	0.07	1.0000 
	-1	-10	0	8994	562	8833	0.57	0.03	1.0000 
	-2	-10	0	1146	246	1149	0.06	-0.33	1.0000 
	10	-2	0	1133	283	1197	0.6	0.26	1.0000 
	-3	-10	0	4718	409	4708	-0.02	-0.61	1.0000 
	10	-3	0	5451	499	5530	0.39	-0.89	1.0000 
	10	-4	0	12286	799	11977	0.94	0.03	1.0000 
	-4	-10	0	11915	686	11556	1.15	-0.5	1.0000 
	-5	-10	0	15437	839	15503	0.07	1.14	1.0000 
	10	-5	0	16218	975	16094	-0.46	1.37	1.0000 
	-6	-10	0	5008	415	4991	-0.02	0.89	1.0000 
	10	-6	0	5024	511	5027	0.01	-0.16	1.0000 
	-7	-10	0	7	117	-12	-1.11	-1.43	1.0000 
	10	-7	0	9	105	-34	-1.31	-1.58	1.0000 
	10	-8	0	712	214	579	-1.66	-1.24	1.0000 
	-8	-10	0	603	166	539	-0.81	-1.83	1.0000 
	-9	-10	0	7938	562	7843	0.48	-1.28	1.0000 
	10	-9	0	7510	661	7405	0.37	0.5	1.0000 
	-10	-10	0	8803	631	9283	1.61	0.85	1.0000 
	10	-10	0	8753	765	9345	1.99	0.99	1.0000 
	-11	-10	0	4187	423	3561	3.23	1.47	1.0000 
	-11	-9	0	3000	412	3544	3.09	0.99	1.0000 
	-11	-8	0	153	78	112	-0.99	0.96	1.0000 
	11	8	0	4	72	-33	-0.99	-0.96	1.0000 
	11	7	0	756	193	640	1.55	0.68	1.0000 
	-11	-7	0	1074	193	935	1.55	-0.68	1.0000 
	11	6	0	4799	505	4393	-1.92	0.91	1.0000 
	-11	-6	0	4527	358	4133	-1.92	-0.91	1.0000 
	11	5	0	6187	566	6342	-0.74	-0.96	1.0000 
	5	-11	0	6754	487	6964	-0.91	0.66	1.0000 
	-11	-5	0	7250	478	7418	-0.74	0.96	1.0000 
	4	-11	0	3778	364	4256	2.62	-0.91	1.0000 
	11	4	0	4087	451	4466	1.95	0.03	1.0000 
	3	-11	0	251	128	195	1.41	-0.39	1.0000 
	11	3	0	134	105	81	1.94	0.54	1.0000 
	11	2	0	5231	484	5001	1.07	-0.13	1.0000 
	2	-11	0	4662	397	4485	0.88	-0.02	1.0000 
	11	1	0	11923	771	11487	-1.34	0.06	1.0000 
	1	-11	0	11272	659	11003	-0.84	-0.17	1.0000 
	0	-11	0	12184	725	12333	-0.48	0.33	1.0000 
	11	0	0	14571	902	14713	-0.4	0.16	1.0000 
	11	-1	0	11697	804	11444	-0.78	-0.09	1.0000 
	-1	-11	0	13210	720	12750	-1.38	0.4	1.0000 
	-2	-11	0	4381	426	4175	1.06	-0.17	1.0000 
	11	-2	0	3880	465	3691	1.01	0.32	1.0000 
	11	-3	0	413	173	338	1.41	-0.24	1.0000 
	-3	-11	0	114	136	65	1.98	-0.55	1.0000 
	-4	-11	0	3925	402	4293	2	-0.82	1.0000 
	11	-4	0	4268	500	4785	2.63	-0.58	1.0000 
	11	-5	0	7342	646	7538	-0.84	0.87	1.0000 
	-5	-11	0	7180	554	7358	-0.77	0.74	1.0000 
	11	-6	0	4657	521	4200	-2.28	-0.26	1.0000 
	-6	-11	0	4555	396	4181	-1.98	0.63	1.0000 
	11	-7	0	663	233	519	2.09	-0.83	1.0000 
	-7	-11	0	665	168	557	1.58	-0.89	1.0000 
	11	-8	0	2	134	-133	-0.68	0.56	1.0000 
	-8	-11	0	4	102	-66	-0.95	0.84	1.0000 
	-9	-11	0	2891	422	3423	3.05	1.22	1.0000 
	11	-9	0	2804	491	3315	3.02	0.78	1.0000 
	11	-10	0	4780	550	4129	3.19	0.82	1.0000 
	-12	-9	0	917	204	1004	-0.99	0.79	1.0000 
	12	8	0	6	65	-94	-0.8	-1.46	1.0000 
	12	7	0	4	104	-48	0.74	-1.03	1.0000 
	12	6	0	51	92	51	-0.02	0	1.0000 
	12	5	0	200	133	240	1.03	0.87	1.0000 
	5	-12	0	385	153	471	1.46	-0.43	1.0000 
	4	-12	0	380	144	348	0.53	0.37	1.0000 
	12	4	0	639	216	698	-0.7	0.5	1.0000 
	3	-12	0	4	98	-22	1.35	0.06	1.0000 
	12	3	0	98	102	45	2.26	-0.05	1.0000 
	2	-12	0	1700	309	1877	1.41	-0.29	1.0000 
	12	2	0	2212	404	2472	1.79	0.03	1.0000 
	12	1	0	2568	404	2696	-0.85	-0.3	1.0000 
	1	-12	0	2186	333	2235	-0.34	-0.04	1.0000 
	12	0	0	2642	430	3006	2.31	-0.29	1.0000 
	0	-12	0	2939	397	3323	2.29	0.15	1.0000 
	12	-1	0	2477	413	2527	-0.34	0.07	1.0000 
	-1	-12	0	2700	375	2823	-0.8	0.24	1.0000 
	12	-2	0	1978	398	2166	1.38	-0.08	1.0000 
	-2	-12	0	2511	377	2786	1.78	-0.07	1.0000 
	12	-3	0	4	124	-24	1.38	0.24	1.0000 
	-3	-12	0	11	137	-12	2.19	0.14	1.0000 
	-4	-12	0	83	139	100	-0.72	0.89	1.0000 
	12	-4	0	490	220	450	0.63	-0.08	1.0000 
	-5	-12	0	178	116	218	1.04	-0.52	1.0000 
	12	-5	0	555	250	652	1.44	-0.89	1.0000 
	-6	-12	0	448	169	483	0.04	-1.87	1.0000 
	12	-6	0	281	192	299	-0.26	-0.47	1.0000 
	12	-7	0	2	120	16	1.49	0.83	1.0000 
	-7	-12	0	156	114	191	0.89	0.12	1.0000 
	-8	-12	0	10	108	43	-0.61	2.2	1.0000 
	12	-8	0	133	152	207	-1	1.62	1.0000 
	12	-9	0	366	162	416	-0.9	0.67	1.0000 
	13	7	0	120	96	147	0.74	-0.41	1.0000 
	13	6	0	309	160	295	0.28	0.26	1.0000 
	13	5	0	265	147	312	0.97	0.65	1.0000 
	4	-13	0	1	72	-75	0.45	0.3	1.0000 
	13	4	0	0	95	-9	0.06	-0.32	1.0000 
	3	-13	0	0	103	-11	-0.44	0.04	1.0000 
	13	3	0	30	84	20	-0.67	-0.03	1.0000 
	2	-13	0	174	138	201	-0.66	-0.32	1.0000 
	13	2	0	39	90	57	-0.88	0.32	1.0000 
	13	1	0	194	108	157	0.97	0.19	1.0000 
	1	-13	0	278	146	268	0.26	-0.26	1.0000 
	13	0	0	27	94	77	2.57	-0.44	1.0000 
	0	-13	0	67	136	144	2.63	-0.17	1.0000 
	-1	-13	0	169	97	133	0.99	-0.04	1.0000 
	13	-1	0	23	111	22	0.16	-0.51	1.0000 
	-2	-13	0	103	138	128	-0.8	-0.34	1.0000 
	13	-2	0	80	148	99	-0.7	-0.3	1.0000 
	-3	-13	0	1	112	-152	-0.66	-0.38	1.0000 
	13	-3	0	154	135	141	-0.37	0.1	1.0000 
	-4	-13	0	0	124	-26	-0.02	0.45	1.0000 
	13	-4	0	98	172	107	0.41	0.54	1.0000 
	13	-5	0	537	231	621	1.21	-0.52	1.0000 
	-5	-13	0	457	183	521	0.99	-0.28	1.0000 
	13	-6	0	382	218	375	0.13	-0.19	1.0000 
	-6	-13	0	978	236	952	0.31	-0.4	1.0000 
	4	-14	0	1063	209	1168	1.05	0.11	1.0000 
	14	4	0	1687	383	1840	1.23	0.02	1.0000 
	14	3	0	843	233	821	0.27	0.14	1.0000 
	3	-14	0	766	190	714	0.65	-0.13	1.0000 
	2	-14	0	80	94	91	0.12	-0.46	1.0000 
	14	2	0	91	110	98	0.18	0.16	1.0000 
	1	-14	0	2081	332	2016	-0.45	-0.27	1.0000 
	14	1	0	2165	419	2070	-0.61	0.82	1.0000 
	14	0	0	2766	472	3049	-1.79	0.23	1.0000 
	0	-14	0	2152	375	2395	-1.76	0.39	1.0000 
	-1	-14	0	2409	379	2313	-0.66	-0.03	1.0000 
	14	-1	0	1380	298	1323	-0.46	-0.62	1.0000 
	-2	-14	0	0	131	0	0.17	-0.41	1.0000 
	14	-2	0	0	109	-69	0.21	-0.31	1.0000 
	-3	-14	0	1105	265	1078	0.28	-0.11	1.0000 
	14	-3	0	1158	331	1090	0.69	-0.23	1.0000 
	1	1	-1	16110	65	634	-69.26	2.81	1.0000 
	-1	-1	-1	16089	63	628	-68.87	-4.22	1.0000 
	1	1	1	16604	59	739	-68.87	4.22	1.0000 
	-1	-1	1	16360	60	688	-69.26	-2.81	1.0000 
	-1	-1	-1	16463	56	708	-68.87	-4.22	1.0000 
	-2	-1	1	8979	473	12919	-12.34	-7.36	1.0000 
	-2	-1	-1	9237	460	13084	-12.12	4.77	1.0000 
	2	1	-1	9421	543	13451	-12.34	7.36	1.0000 
	2	1	1	9116	532	12940	-12.12	-4.77	1.0000 
	2	-1	-1	8955	520	12741	11.95	-3.95	1.0000 
	-1	-2	-1	8842	467	12644	-12.16	5.65	1.0000 
	1	2	1	9151	500	13013	-12.16	-5.65	1.0000 
	-1	-2	1	8998	467	12986	-12.56	-6.46	1.0000 
	-1	-2	-1	8894	484	12706	-12.16	5.65	1.0000 
	1	2	-1	8337	519	12186	-12.56	6.46	1.0000 
	-2	-2	1	665	71	176	-8.38	-13.47	1.0000 
	2	2	1	648	63	162	-8.59	-12.41	1.0000 
	-2	-2	-1	682	67	198	-8.59	12.41	1.0000 
	2	2	-1	638	69	141	-8.38	13.47	1.0000 
	-3	-2	-1	16654	793	22670	-14.39	3.77	1.0000 
	-3	-2	1	16180	803	22136	-14.42	-4.34	1.0000 
	3	2	1	17026	907	23104	-14.39	-3.77	1.0000 
	3	2	-1	16295	914	22271	-14.42	4.34	1.0000 
	3	1	1	14260	814	19945	14.34	-5.11	1.0000 
	-3	-1	1	14165	709	19923	14.74	-1.22	1.0000 
	1	-3	1	14776	715	20436	-14.26	-0.89	1.0000 
	-3	-1	-1	14123	693	19783	14.34	5.11	1.0000 
	3	1	-1	14862	823	20747	14.74	1.22	1.0000 
	1	3	1	15443	790	21416	14.4	-6.47	1.0000 
	-1	-3	1	14259	723	19861	14.36	0.04	1.0000 
	-1	-3	-1	14193	750	19936	14.4	6.47	1.0000 
	-1	-3	1	14180	720	19767	14.36	0.04	1.0000 
	-1	-3	-1	14367	728	20142	14.4	6.47	1.0000 
	3	-1	-1	14418	818	20010	-14.22	-5.22	1.0000 
	2	3	1	14146	835	19790	-14.53	-4.69	1.0000 
	-2	-3	-1	16353	776	22389	-14.53	4.69	1.0000 
	-2	-3	1	15943	779	21905	-14.54	-3.62	1.0000 
	-2	-3	-1	16629	807	22712	-14.53	4.69	1.0000 
	2	3	-1	14328	856	20002	-14.54	3.62	1.0000 
	3	3	1	15169	407	8229	-21.89	-3.81	1.0000 
	3	3	-1	15362	420	8275	-22.81	8.72	1.0000 
	-3	-3	-1	14859	369	8001	-21.89	3.81	1.0000 
	-3	-3	1	14368	364	7541	-22.81	-8.72	1.0000 
	4	3	-1	5598	324	5013	2.94	6.71	1.0000 
	-4	-3	-1	5452	272	4783	3.31	6.05	1.0000 
	-4	-3	1	5179	278	4613	2.94	-6.71	1.0000 
	4	3	1	5681	316	5000	3.31	-6.05	1.0000 
	-4	-2	-1	5529	292	5874	1.48	1.14	1.0000 
	4	2	1	5863	347	6218	1.48	-1.14	1.0000 
	4	2	-1	5344	346	5656	1.39	0.45	1.0000 
	-4	-2	1	5092	290	5397	1.39	-0.45	1.0000 
	1	-4	-1	2854	153	1670	-8.38	-0.09	1.0000 
	-4	-1	1	2854	148	1748	7.74	0.56	1.0000 
	4	1	-1	2743	177	1662	7.74	-0.56	1.0000 
	1	-4	1	2954	149	1722	-8.61	2.76	1.0000 
	-4	-1	-1	2894	135	1809	7.82	3.29	1.0000 
	4	1	1	2730	175	1679	7.82	-3.29	1.0000 
	4	-1	-1	2918	176	1707	-8.48	-2.18	1.0000 
	-1	-4	1	2842	166	1744	7.94	-2.81	1.0000 
	-1	-4	-1	3188	151	2013	7.74	0.01	1.0000 
	4	-1	1	2986	183	1751	-8.53	0.68	1.0000 
	-1	-4	-1	3102	176	1945	7.74	0.01	1.0000 
	-1	-4	1	2837	112	1740	7.94	-2.81	1.0000 
	2	4	-1	5454	339	5767	1.37	0.7	1.0000 
	2	4	1	5270	313	5611	1.5	-1.03	1.0000 
	-2	-4	-1	5056	279	5390	1.5	1.03	1.0000 
	-2	-4	-1	5424	310	5770	1.5	1.03	1.0000 
	-2	-4	1	5313	306	5622	1.37	-0.7	1.0000 
	4	-2	-1	5616	350	6008	-1.74	-1.77	1.0000 
	3	4	1	5268	294	4680	3.1	-7.35	1.0000 
	3	4	-1	5536	313	4915	3.01	5.5	1.0000 
	-3	-4	-1	5631	291	5027	3.1	7.35	1.0000 
	-3	-4	1	4955	278	4364	3.01	-5.5	1.0000 
	-4	-4	-1	4604	308	4897	0.75	6.51	1.0000 
	4	4	-1	4454	334	4743	0.86	5.92	1.0000 
	4	4	1	4557	323	4848	0.75	-6.51	1.0000 
	-4	-4	1	5056	319	5369	0.86	-5.92	1.0000 
	-5	-4	1	1257	207	1859	-5.06	-1.5	1.0000 
	5	4	1	978	202	1530	-5.23	-0.5	1.0000 
	-5	-4	-1	1313	199	1943	-5.23	0.5	1.0000 
	5	4	-1	1192	226	1779	-5.06	1.5	1.0000 
	-5	-3	1	349	147	985	8.47	0.34	1.0000 
	5	3	-1	122	138	563	8.47	-0.34	1.0000 
	-5	-3	-1	141	118	579	8.05	1.58	1.0000 
	5	3	1	166	137	628	8.05	-1.58	1.0000 
	5	2	-1	1020	121	357	8.8	1.7	1.0000 
	5	2	1	1032	117	345	9.12	-1.53	1.0000 
	-5	-2	1	816	90	240	8.8	-1.7	1.0000 
	2	-5	1	1443	119	621	-8.87	1.65	1.0000 
	-5	-2	-1	949	86	297	9.12	1.53	1.0000 
	1	-5	1	295	83	471	-3	0.71	1.0000 
	1	-5	1	342	119	530	-3	0.71	1.0000 
	-5	-1	1	399	106	563	2.51	0.04	1.0000 
	5	1	-1	94	100	181	2.51	-0.04	1.0000 
	-5	-1	-1	197	86	337	2.89	0.1	1.0000 
	1	-5	-1	130	81	260	-3.17	0.38	1.0000 
	5	1	1	86	99	185	2.89	-0.1	1.0000 
	-1	-5	1	301	117	454	2.64	-0.36	1.0000 
	-1	-5	-1	165	77	288	2.75	-0.13	1.0000 
	5	-1	-1	44	87	133	-3.29	-0.17	1.0000 
	-1	-5	1	421	74	599	2.64	-0.36	1.0000 
	-1	-5	-1	185	108	315	2.75	-0.13	1.0000 
	5	-1	1	121	106	243	-3.05	0.17	1.0000 
	-2	-5	-1	899	104	277	9.06	2.31	1.0000 
	5	-2	1	570	95	112	-8.93	1.82	1.0000 
	-2	-5	-1	971	79	318	9.06	2.31	1.0000 
	-2	-5	1	1359	129	555	8.91	-0.9	1.0000 
	5	-2	-1	1072	122	397	-8.73	-2.01	1.0000 
	-2	-5	1	1744	85	810	8.91	-0.9	1.0000 
	-3	-5	-1	186	103	661	8	1.23	1.0000 
	-3	-5	1	199	143	726	8.56	0.06	1.0000 
	3	5	1	227	132	736	8	-1.23	1.0000 
	5	-3	-1	167	145	632	-7.89	-3.17	1.0000 
	-3	-5	-1	197	139	682	8	1.23	1.0000 
	3	5	-1	275	152	864	8.56	-0.06	1.0000 
	-4	-5	1	1948	234	2710	-5.1	-2.65	1.0000 
	4	5	-1	1457	227	2123	-5.1	2.65	1.0000 
	4	5	1	1119	209	1699	-5.17	0.59	1.0000 
	-4	-5	-1	1598	233	2279	-5.17	-0.59	1.0000 
	5	5	-1	793	163	656	-7.63	6.38	1.0000 
	5	5	1	882	142	521	-6.96	-3.76	1.0000 
	-5	-5	-1	1118	154	718	-6.96	3.76	1.0000 
	-5	-5	1	1211	180	1100	-7.63	-6.38	1.0000 
	6	5	1	10	91	109	-2.99	-4.11	1.0000 
	-6	-5	-1	204	135	475	-2.99	4.11	1.0000 
	6	5	-1	205	139	380	-3.25	1.23	1.0000 
	-6	-5	1	295	144	500	-3.25	-1.23	1.0000 
	-6	-4	1	200	123	353	-2.87	1.31	1.0000 
	6	4	-1	68	103	166	-2.87	-1.31	1.0000 
	-6	-4	-1	154	111	292	-2.94	-1.14	1.0000 
	6	4	1	18	75	80	-2.94	1.14	1.0000 
	6	3	1	308	132	371	1.2	0.92	1.0000 
	6	3	-1	225	121	283	1.26	-0.5	1.0000 
	-6	-3	-1	262	104	320	1.2	-0.92	1.0000 
	-6	-3	1	256	112	318	1.26	0.5	1.0000 
	6	2	1	1	51	-59	-0.34	-0.72	1.0000 
	-6	-2	1	8	71	8	-0.84	-1.63	1.0000 
	6	2	-1	8	76	-15	-0.84	1.63	1.0000 
	2	-6	-1	2	66	8	0.86	-0.97	1.0000 
	-6	-2	-1	99	77	105	-0.34	0.72	1.0000 
	2	-6	1	3	63	-45	0.91	0.64	1.0000 
	1	-6	1	13	106	150	5.75	1.03	1.0000 
	-6	-1	1	177	114	484	-5.83	-0.98	1.0000 
	1	-6	1	30	76	200	5.75	1.03	1.0000 
	6	1	-1	2	102	91	-5.83	0.98	1.0000 
	-6	-1	-1	221	101	538	-5.6	-0.3	1.0000 
	1	-6	-1	9	106	147	5.59	-2.64	1.0000 
	6	1	1	13	106	139	-5.6	0.3	1.0000 
	1	-6	-1	10	78	153	5.59	-2.64	1.0000 
	-1	-6	-1	70	120	289	-5.79	1.17	1.0000 
	-1	-6	1	119	67	372	-5.64	0.41	1.0000 
	-1	-6	-1	99	88	347	-5.79	1.17	1.0000 
	-1	-6	1	98	128	333	-5.64	0.41	1.0000 
	6	-1	1	60	92	2	5.71	2.12	1.0000 
	6	-1	-1	14	102	149	5.6	-1.37	1.0000 
	6	-2	-1	37	86	56	0.87	-0.34	1.0000 
	6	-2	1	20	84	40	0.95	1.01	1.0000 
	-2	-6	-1	6	71	-89	-0.65	1.52	1.0000 
	-2	-6	1	63	88	72	-0.54	-0.94	1.0000 
	-2	-6	-1	6	52	-5	-0.65	1.52	1.0000 
	-2	-6	1	98	46	110	-0.54	-0.94	1.0000 
	-3	-6	-1	229	84	283	1.19	-0.66	1.0000 
	6	-3	-1	57	92	86	-1.08	1.25	1.0000 
	3	6	-1	117	102	162	1.34	-0.75	1.0000 
	-3	-6	-1	232	115	287	1.19	-0.66	1.0000 
	6	-3	1	255	136	308	-0.98	-0.76	1.0000 
	-3	-6	1	302	122	373	1.34	0.75	1.0000 
	3	6	1	138	88	181	1.19	0.66	1.0000 
	4	6	1	25	77	93	-2.85	1.54	1.0000 
	-4	-6	-1	107	127	227	-2.85	-1.54	1.0000 
	4	6	-1	9	88	57	-3.01	-0.69	1.0000 
	6	-4	-1	2	86	22	2.95	1.06	1.0000 
	-4	-6	1	40	108	120	-3.01	0.69	1.0000 
	6	-5	-1	27	127	92	2.87	-0.83	1.0000 
	-5	-6	1	241	146	460	-3.24	-2.33	1.0000 
	5	6	-1	112	121	272	-3.24	2.33	1.0000 
	-5	-6	-1	96	127	269	-3.18	3.14	1.0000 
	5	6	1	61	104	207	-3.18	-3.14	1.0000 
	6	6	1	240	116	252	-2.64	-4.08	1.0000 
	-6	-6	-1	212	129	220	-2.64	4.08	1.0000 
	6	6	-1	172	105	122	-2.32	2.08	1.0000 
	-6	-6	1	495	151	420	-2.32	-2.08	1.0000 
	-7	-6	-1	411	144	437	-0.43	-0.02	1.0000 
	7	6	1	367	154	392	-0.43	0.02	1.0000 
	-7	-6	1	501	151	516	-0.24	-0.38	1.0000 
	7	6	-1	804	206	823	-0.24	0.38	1.0000 
	-7	-5	1	153	121	307	-3.35	0.85	1.0000 
	7	5	1	12	99	82	-3.57	-1.35	1.0000 
	7	5	-1	1	96	38	-3.35	-0.85	1.0000 
	-7	-5	-1	20	102	101	-3.57	1.35	1.0000 
	7	4	-1	711	176	593	-1.53	-0.18	1.0000 
	-7	-4	1	612	147	503	-1.53	0.18	1.0000 
	-7	-4	-1	1103	173	978	-1.4	1.11	1.0000 
	7	4	1	787	179	681	-1.4	-1.11	1.0000 
	7	3	-1	2252	284	2304	-0.41	1.08	1.0000 
	-7	-3	1	2515	231	2570	-0.41	-1.08	1.0000 
	3	-7	1	2966	241	2948	-0.14	0.55	1.0000 
	7	3	1	1719	255	1724	-0.07	-0.54	1.0000 
	-7	-3	-1	2235	211	2241	-0.07	0.54	1.0000 
	-7	-2	1	2402	223	2564	1.09	0.05	1.0000 
	-7	-2	-1	2160	200	2336	1.25	-0.07	1.0000 
	2	-7	-1	2238	236	2439	-1.41	-0.46	1.0000 
	2	-7	-1	2121	215	2317	-1.41	-0.46	1.0000 
	7	2	1	2712	293	2909	1.25	0.07	1.0000 
	2	-7	1	2415	239	2652	-1.62	0.96	1.0000 
	7	2	-1	2071	282	2222	1.09	-0.05	1.0000 
	2	-7	1	2545	209	2788	-1.62	0.96	1.0000 
	-7	-1	-1	716	122	688	0.4	-0.53	1.0000 
	1	-7	1	780	109	744	-0.54	1.16	1.0000 
	7	1	-1	885	186	864	0.23	0.02	1.0000 
	7	1	1	543	168	518	0.4	0.53	1.0000 
	1	-7	-1	582	147	544	-0.6	-0.76	1.0000 
	1	-7	1	701	156	667	-0.54	1.16	1.0000 
	1	-7	-1	849	125	803	-0.6	-0.76	1.0000 
	-7	-1	1	769	134	750	0.23	-0.02	1.0000 
	7	-1	-1	573	162	537	-0.53	-0.32	1.0000 
	-1	-7	1	727	164	694	0.41	-0.08	1.0000 
	-1	-7	-1	792	115	766	0.35	-0.5	1.0000 
	7	-1	1	687	171	662	-0.48	1.49	1.0000 
	-1	-7	1	767	90	733	0.41	-0.08	1.0000 
	-1	-7	-1	746	169	721	0.35	-0.5	1.0000 
	7	-2	1	2539	293	2765	-1.51	0.86	1.0000 
	-2	-7	-1	2945	213	3115	1.04	-0.24	1.0000 
	-2	-7	-1	2805	269	2970	1.04	-0.24	1.0000 
	7	-2	-1	2466	286	2710	-1.63	-0.54	1.0000 
	-2	-7	1	2672	285	2866	1.21	-0.36	1.0000 
	-3	-7	-1	2849	211	2875	-0.2	0.89	1.0000 
	7	-3	-1	2726	295	2701	-0.16	-0.08	1.0000 
	7	-3	1	2492	303	2481	-0.1	0.48	1.0000 
	-3	-7	-1	2748	279	2773	-0.2	0.89	1.0000 
	-3	-7	1	2527	274	2573	-0.35	-0.95	1.0000 
	4	7	1	792	163	676	-1.52	-1.07	1.0000 
	-4	-7	-1	950	186	823	-1.52	1.07	1.0000 
	-4	-7	1	712	171	592	-1.57	0.06	1.0000 
	4	7	-1	556	149	451	-1.57	-0.06	1.0000 
	7	-4	1	761	195	664	1.37	-1.69	1.0000 
	7	-4	-1	663	178	551	1.53	0.18	1.0000 
	5	7	1	31	86	125	-3.71	-0.64	1.0000 
	5	7	-1	38	112	126	-3.35	-0.18	1.0000 
	-5	-7	1	171	139	328	-3.35	0.18	1.0000 
	7	-5	-1	11	99	11	4.39	-0.34	1.0000 
	-5	-7	-1	17	112	95	-3.71	0.64	1.0000 
	6	7	1	317	131	339	-0.35	0.48	1.0000 
	7	-6	-1	399	179	405	0.01	-0.71	1.0000 
	-6	-7	1	444	155	458	-0.27	-0.97	1.0000 
	-6	-7	-1	331	151	353	-0.35	-0.48	1.0000 
	6	7	-1	522	172	538	-0.27	0.97	1.0000 
	-7	-7	1	260	151	399	2.74	1.88	1.0000 
	7	7	1	432	180	607	2.7	1.8	1.0000 
	-7	-7	-1	530	179	723	2.7	-1.8	1.0000 
	7	7	-1	555	196	756	2.74	-1.88	1.0000 
	8	7	1	345	145	372	-0.43	0.34	1.0000 
	8	7	-1	529	193	608	-0.51	-2.94	1.0000 
	-8	-7	1	206	126	249	-0.51	2.94	1.0000 
	-8	-7	-1	261	123	284	-0.43	-0.34	1.0000 
	-8	-6	-1	129	125	195	1.8	-2.57	1.0000 
	8	6	-1	126	134	188	1.76	-1.3	1.0000 
	-8	-6	1	86	120	138	1.76	1.3	1.0000 
	8	6	1	285	143	388	1.8	2.57	1.0000 
	8	5	-1	230	144	269	0.63	1.84	1.0000 
	8	5	1	155	120	154	-0.04	-0.25	1.0000 
	-8	-5	-1	186	113	185	-0.04	0.25	1.0000 
	5	-8	1	70	98	74	-0.16	0.55	1.0000 
	-8	-5	1	155	121	186	0.63	-1.84	1.0000 
	-8	-4	-1	1100	184	1028	0.71	3.1	1.0000 
	4	-8	1	1413	199	1370	-0.44	0.93	1.0000 
	8	4	-1	1296	246	1225	0.67	3.47	1.0000 
	-8	-4	1	1356	209	1284	0.67	-3.47	1.0000 
	8	4	1	1076	221	1004	0.71	-3.1	1.0000 
	8	3	1	2451	313	2411	-0.29	-0.3	1.0000 
	-8	-3	1	2124	233	2047	-0.54	0.39	1.0000 
	3	-8	1	1898	234	1868	0.16	1.61	1.0000 
	3	-8	-1	2159	256	2140	0.15	0.24	1.0000 
	8	3	-1	1909	283	1836	-0.54	-0.39	1.0000 
	-8	-3	-1	2411	237	2372	-0.29	0.3	1.0000 
	3	-8	-1	2035	225	2017	0.15	0.24	1.0000 
	2	-8	-1	2342	213	2339	-0.09	0.91	1.0000 
	2	-8	1	2097	195	2067	-0.34	-1.45	1.0000 
	8	2	1	2523	315	2550	-0.25	2.54	1.0000 
	-8	-2	1	2331	235	2372	-0.35	3.13	1.0000 
	-8	-2	-1	2129	209	2153	-0.25	-2.54	1.0000 
	2	-8	-1	2142	250	2139	-0.09	0.91	1.0000 
	2	-8	1	2105	247	2075	-0.34	-1.45	1.0000 
	8	2	-1	1826	283	1859	-0.35	-3.13	1.0000 
	8	1	1	292	141	307	0.35	3.05	1.0000 
	1	-8	1	157	112	190	-0.36	-3.67	1.0000 
	1	-8	-1	267	101	300	-0.31	2.29	1.0000 
	1	-8	-1	429	154	473	-0.31	2.29	1.0000 
	-8	-1	-1	347	103	365	0.35	-3.05	1.0000 
	8	1	-1	420	159	428	0.17	-2.52	1.0000 
	-1	-8	1	506	168	522	0.15	3.42	1.0000 
	8	-1	-1	507	177	578	-0.42	3	1.0000 
	-1	-8	-1	467	156	477	0.19	-2.14	1.0000 
	8	-1	1	244	142	284	-0.33	-3.1	1.0000 
	-2	-8	-1	1902	259	1944	-0.41	-2.91	1.0000 
	8	-2	1	2201	302	2182	-0.27	-1.64	1.0000 
	8	-2	-1	2348	304	2311	-0.31	0.8	1.0000 
	-2	-8	1	2381	275	2407	-0.25	2.8	1.0000 
	-3	-8	-1	1841	256	1767	-0.53	-0.96	1.0000 
	8	-3	-1	1929	288	1909	0.1	-0.93	1.0000 
	-3	-8	1	2269	283	2225	-0.39	-1.05	1.0000 
	8	-3	1	1925	294	1941	-0.14	0.2	1.0000 
	8	-4	1	1454	270	1389	-0.64	0.96	1.0000 
	-4	-8	-1	1163	221	1117	0.43	3.22	1.0000 
	-4	-8	1	1245	226	1173	0.69	-3.51	1.0000 
	8	-4	-1	1367	256	1317	-0.49	-0.67	1.0000 
	-5	-8	1	177	127	188	0.27	-0.49	1.0000 
	5	8	1	176	105	196	0.31	-1.9	1.0000 
	5	8	-1	142	102	152	0.27	0.49	1.0000 
	8	-5	-1	1	104	-2	0.08	-0.78	1.0000 
	8	-5	1	314	170	335	-0.17	2	1.0000 
	-5	-8	-1	178	140	198	0.31	1.9	1.0000 
	-6	-8	1	104	138	159	1.71	1.69	1.0000 
	-6	-8	-1	204	143	286	1.79	-1.95	1.0000 
	8	-6	1	66	160	127	-2.27	1.99	1.0000 
	6	8	1	160	115	232	1.79	1.95	1.0000 
	6	8	-1	197	126	273	1.71	-1.69	1.0000 
	8	-6	-1	70	139	139	-2.31	0.04	1.0000 
	-7	-8	1	269	148	299	-0.37	1.62	1.0000 
	7	8	-1	569	175	615	-0.37	-1.62	1.0000 
	-7	-8	-1	316	147	368	-0.62	-1.99	1.0000 
	7	8	1	213	110	255	-0.62	1.99	1.0000 
	8	-7	1	336	202	337	0.14	-3.59	1.0000 
	8	-7	-1	284	185	287	0.23	2.03	1.0000 
	-8	-8	-1	818	178	659	-2.06	1.01	1.0000 
	8	-8	-1	701	229	530	2.52	1.69	1.0000 
	8	8	1	820	179	661	-2.06	-1.01	1.0000 
	8	8	-1	324	144	233	-1.86	0.46	1.0000 
	-8	-8	1	829	197	680	-1.86	-0.46	1.0000 
	9	8	1	349	122	295	0.99	-0.21	1.0000 
	9	8	-1	553	171	473	1.14	1.51	1.0000 
	8	-9	-1	362	200	299	-1.26	-0.92	1.0000 
	-9	-8	-1	337	119	284	0.99	0.21	1.0000 
	-9	-8	1	446	135	374	1.14	-1.51	1.0000 
	9	7	-1	351	142	283	-1.35	0.47	1.0000 
	9	7	1	8	84	-106	-1.58	1.01	1.0000 
	-9	-7	1	201	135	150	-1.35	-0.47	1.0000 
	-9	-7	-1	350	146	264	-1.58	-1.01	1.0000 
	-9	-6	1	88	104	74	0.5	-0.4	1.0000 
	6	-9	1	184	109	194	0.2	0.45	1.0000 
	9	6	1	98	81	89	0.25	-0.89	1.0000 
	-9	-6	-1	170	109	159	0.25	0.89	1.0000 
	9	6	-1	264	124	239	0.5	0.4	1.0000 
	9	5	-1	109	134	290	4.32	0.82	1.0000 
	9	5	1	13	114	112	3.92	-2.58	1.0000 
	-9	-5	1	76	122	234	4.32	-0.82	1.0000 
	5	-9	1	82	122	290	-4.3	3.22	1.0000 
	-9	-5	-1	111	123	307	3.92	2.58	1.0000 
	9	4	1	262	171	419	2.68	-1.91	1.0000 
	4	-9	-1	448	159	651	-2.92	-0.7	1.0000 
	4	-9	1	252	144	414	-3.03	1.17	1.0000 
	-9	-4	1	332	152	498	2.6	-1.47	1.0000 
	-9	-4	-1	452	159	654	2.68	1.91	1.0000 
	4	-9	-1	268	156	429	-2.92	-0.7	1.0000 
	9	4	-1	294	178	451	2.6	1.47	1.0000 
	9	3	1	445	174	431	0.23	-0.04	1.0000 
	9	3	-1	812	218	794	0.25	-0.44	1.0000 
	3	-9	1	597	159	533	-0.87	-0.53	1.0000 
	-9	-3	1	819	177	800	0.25	0.44	1.0000 
	3	-9	-1	632	170	580	-0.69	0.21	1.0000 
	-9	-3	-1	657	157	640	0.23	0.04	1.0000 
	9	2	-1	952	230	860	-0.97	-2.13	1.0000 
	2	-9	1	1142	217	1085	0.68	-1.22	1.0000 
	-9	-2	1	1350	189	1242	-0.97	2.13	1.0000 
	9	2	1	1221	242	1107	-1.08	1.94	1.0000 
	2	-9	-1	971	214	924	0.59	1.02	1.0000 
	-9	-2	-1	955	156	853	-1.08	-1.94	1.0000 
	1	-9	-1	78	140	108	0.97	0.85	1.0000 
	9	1	-1	195	154	230	-0.82	-0.38	1.0000 
	9	1	1	305	161	348	-0.82	0.91	1.0000 
	1	-9	1	302	159	357	0.86	-1.25	1.0000 
	9	-1	1	149	145	191	1.01	-0.67	1.0000 
	-1	-9	1	136	131	163	-0.78	1.12	1.0000 
	9	-1	-1	213	150	259	0.84	1.35	1.0000 
	-1	-9	-1	349	175	402	-0.94	-0.29	1.0000 
	-2	-9	-1	1216	232	1101	-1.09	-2.08	1.0000 
	9	-2	1	713	212	665	0.69	-1.08	1.0000 
	-2	-9	1	1029	213	938	-0.93	2.14	1.0000 
	9	-2	-1	882	228	830	0.68	1.13	1.0000 
	-3	-9	1	515	176	493	0.35	0.39	1.0000 
	9	-3	1	774	219	688	-1.02	-0.77	1.0000 
	9	-3	-1	641	203	584	-0.77	0.02	1.0000 
	-3	-9	-1	462	172	462	0	-0.07	1.0000 
	-4	-9	1	264	177	423	2.71	-1.88	1.0000 
	9	-4	-1	259	180	417	-2.92	-0.99	1.0000 
	-4	-9	-1	114	134	209	2.42	1.68	1.0000 
	9	-4	1	341	205	533	-3.12	0.74	1.0000 
	9	-5	1	2	140	78	-4.62	2.04	1.0000 
	9	-5	-1	5	132	35	-4.32	-3.22	1.0000 
	-5	-9	1	47	142	198	4.19	-2.48	1.0000 
	-5	-9	-1	65	133	211	4.14	1.23	1.0000 
	-6	-9	1	231	141	206	0.54	-0.44	1.0000 
	6	9	1	126	86	122	0.08	-0.91	1.0000 
	9	-6	-1	149	150	166	0.37	-0.95	1.0000 
	9	-6	1	0	131	0	0.12	0.14	1.0000 
	6	9	-1	88	90	73	0.54	0.44	1.0000 
	-6	-9	-1	104	131	100	0.08	0.91	1.0000 
	-7	-9	-1	129	111	80	-1.6	-0.18	1.0000 
	9	-7	1	20	146	4	1.67	0.04	1.0000 
	-7	-9	1	114	107	70	-1.51	0.28	1.0000 
	7	9	-1	404	123	317	-1.51	-0.28	1.0000 
	9	-7	-1	165	143	106	1.77	0.44	1.0000 
	-8	-9	1	233	136	186	1.01	-1.46	1.0000 
	9	-8	1	320	190	274	-1.12	1.85	1.0000 
	-8	-9	-1	523	161	441	1.25	0.15	1.0000 
	9	-8	-1	459	202	387	-1.26	-0.78	1.0000 
	8	9	-1	180	114	138	1.01	1.46	1.0000 
	-9	-9	-1	539	172	580	0.58	0.01	1.0000 
	9	-9	-1	275	190	333	-0.77	1.95	1.0000 
	9	9	-1	348	126	360	0.16	0.51	1.0000 
	9	-9	1	103	183	125	-0.62	-0.86	1.0000 
	-9	-9	1	278	122	289	0.16	-0.51	1.0000 
	-10	-9	-1	366	156	563	-2.3	-2.42	1.0000 
	-10	-9	1	136	143	316	-2.79	3.47	1.0000 
	9	-10	1	106	214	311	2.17	-5.18	1.0000 
	10	9	-1	84	116	231	-2.79	-3.47	1.0000 
	9	-10	-1	92	182	287	2.28	5.15	1.0000 
	10	8	1	2	89	-156	0.52	0.92	1.0000 
	8	-10	-1	133	179	187	-1.27	-1.15	1.0000 
	-10	-8	-1	50	76	63	0.52	-0.92	1.0000 
	10	8	-1	18	104	28	0.66	0.77	1.0000 
	-10	-8	1	56	97	74	0.66	-0.77	1.0000 
	10	7	-1	0	81	61	0.03	5.06	1.0000 
	-10	-7	1	18	71	11	0.03	-5.06	1.0000 
	-10	-7	-1	23	84	36	-0.71	-0.4	1.0000 
	10	7	1	1	70	-8	-0.71	0.4	1.0000 
	-10	-6	-1	105	132	247	0.07	3.72	1.0000 
	-10	-6	1	144	125	273	0.2	-3.09	1.0000 
	10	6	1	35	101	129	0.07	-3.72	1.0000 
	6	-10	-1	136	119	180	1.07	0.52	1.0000 
	10	6	-1	21	78	-62	0.2	3.09	1.0000 
	10	5	1	410	197	601	2.45	-1.51	1.0000 
	5	-10	1	285	160	443	-2.07	1.95	1.0000 
	-10	-5	-1	505	161	715	2.45	1.51	1.0000 
	5	-10	-1	338	158	522	-2.4	1.85	1.0000 
	10	5	-1	126	152	298	2.13	-3.55	1.0000 
	-10	-5	1	601	199	936	2.13	3.55	1.0000 
	-10	-4	1	449	169	662	-1.99	3.92	1.0000 
	10	4	1	420	195	574	-2.08	1.77	1.0000 
	-10	-4	-1	413	149	565	-2.08	-1.77	1.0000 
	10	4	-1	230	164	382	-1.99	-3.92	1.0000 
	4	-10	-1	377	162	493	1.75	-1.18	1.0000 
	4	-10	1	282	149	395	1.9	1.46	1.0000 
	-10	-3	1	580	145	543	-0.63	-1.07	1.0000 
	10	3	1	477	182	437	-0.64	-0.29	1.0000 
	3	-10	-1	460	160	437	0.45	-1.24	1.0000 
	10	3	-1	242	141	217	-0.63	1.07	1.0000 
	-10	-3	-1	516	132	474	-0.64	0.29	1.0000 
	3	-10	1	272	144	240	0.69	-0.47	1.0000 
	10	2	1	383	158	277	1.95	0.02	1.0000 
	2	-10	-1	15	104	-152	-1.93	1.67	1.0000 
	10	2	-1	398	156	299	1.96	1.37	1.0000 
	2	-10	1	434	137	338	-1.81	-1.32	1.0000 
	1	-10	-1	174	167	340	-3.47	-0.57	1.0000 
	1	-10	1	180	153	358	-3.58	1.07	1.0000 
	10	1	1	121	165	277	3.65	-1.29	1.0000 
	10	1	-1	179	175	373	3.79	1.48	1.0000 
	10	-1	-1	209	176	389	-3.48	-0.64	1.0000 
	-1	-10	1	78	164	214	3.76	-1.32	1.0000 
	-1	-10	-1	135	157	305	3.74	1.54	1.0000 
	10	-1	1	92	150	224	-3.48	1.01	1.0000 
	10	-2	1	235	144	157	-1.91	-0.76	1.0000 
	10	-2	-1	111	122	66	-1.85	2.08	1.0000 
	-2	-10	-1	263	148	181	1.91	0.93	1.0000 
	-2	-10	1	182	145	114	1.9	-0.45	1.0000 
	10	-3	1	214	151	189	0.59	0.59	1.0000 
	-3	-10	-1	308	163	285	-0.63	1.58	1.0000 
	-3	-10	1	470	187	428	-0.67	0.24	1.0000 
	10	-3	-1	238	159	214	0.53	-0.62	1.0000 
	-4	-10	-1	249	178	388	-1.94	-3.28	1.0000 
	-4	-10	1	318	191	454	-1.88	2.52	1.0000 
	10	-4	-1	254	198	372	1.86	-2.36	1.0000 
	10	-4	1	189	182	278	1.95	0.38	1.0000 
	10	-5	-1	160	156	274	-2.36	-1.16	1.0000 
	10	-5	1	153	181	281	-2.31	-1.9	1.0000 
	-5	-10	1	320	188	495	2.73	-1.06	1.0000 
	-5	-10	-1	394	210	672	2.14	-3.54	1.0000 
	-6	-10	-1	145	149	268	0.02	2.97	1.0000 
	10	-6	-1	39	140	63	1.15	-0.12	1.0000 
	10	-6	1	230	174	300	0.74	-1.31	1.0000 
	-6	-10	1	310	176	548	0.4	-3.91	1.0000 
	10	-7	-1	13	105	-94	0.9	-2.22	1.0000 
	-7	-10	-1	41	105	144	-0.21	3.75	1.0000 
	10	-7	1	25	147	125	0.35	4.1	1.0000 
	-7	-10	1	22	110	63	-0.57	-2.12	1.0000 
	-8	-10	-1	100	105	124	0.75	0.08	1.0000 
	10	-8	-1	84	147	125	-1.27	-0.86	1.0000 
	-8	-10	1	158	112	173	0.39	0.01	1.0000 
	10	-8	1	28	138	60	-1.29	2.02	1.0000 
	-9	-10	-1	273	133	472	-2.3	-3.08	1.0000 
	-9	-10	1	261	155	474	-2.7	3.01	1.0000 
	10	-9	-1	89	177	280	2.17	5.17	1.0000 
	10	-9	1	40	180	174	2.27	-5.03	1.0000 
	-10	-10	-1	547	174	776	-0.16	-4.11	1.0000 
	10	-10	1	165	194	333	0.76	-4.96	1.0000 
	10	-10	-1	21	188	50	0.56	4.35	1.0000 
	-10	-10	1	388	155	600	-0.24	4.38	1.0000 
	-11	-10	1	132	112	292	-1.32	3.8	1.0000 
	-11	-10	-1	130	117	259	-1.71	-2.88	1.0000 
	-11	-9	1	100	123	292	-2.11	4.84	1.0000 
	-11	-9	-1	278	139	487	-2.39	-3.03	1.0000 
	11	8	1	53	77	78	0.78	-1.25	1.0000 
	11	8	-1	103	100	149	1.05	1.4	1.0000 
	-11	-8	-1	415	114	485	0.78	1.25	1.0000 
	-11	-8	1	7	76	-95	1.05	-1.4	1.0000 
	11	7	-1	171	109	215	0.93	6.2	1.0000 
	-11	-7	-1	260	115	269	0.64	3.87	1.0000 
	-11	-7	1	275	126	358	0.93	-6.2	1.0000 
	11	7	1	282	131	293	0.64	-3.87	1.0000 
	11	6	-1	409	175	492	0.78	2.59	1.0000 
	6	-11	-1	526	160	607	-1.14	-0.34	1.0000 
	-11	-6	1	545	170	642	0.78	-2.59	1.0000 
	-11	-6	-1	697	167	798	1.04	1.42	1.0000 
	11	6	1	563	210	654	1.04	-1.42	1.0000 
	5	-11	-1	213	154	444	2.22	4.29	1.0000 
	5	-11	1	175	151	378	1.82	-4.38	1.0000 
	11	5	-1	214	172	422	-2.03	-3.94	1.0000 
	11	5	1	89	109	188	-1.84	2.73	1.0000 
	-11	-5	1	295	133	535	-2.03	3.94	1.0000 
	11	4	1	1	107	56	-4.1	3.96	1.0000 
	11	4	-1	56	145	306	-4.11	-5.3	1.0000 
	-11	-4	1	15	95	193	-4.11	5.3	1.0000 
	4	-11	-1	76	139	279	5.14	1.78	1.0000 
	4	-11	1	51	147	218	4.94	-1.62	1.0000 
	3	-11	1	12	97	-137	1.1	2	1.0000 
	11	3	1	95	92	85	-0.46	0.3	1.0000 
	3	-11	-1	103	132	100	0.83	-1.63	1.0000 
	11	3	-1	90	98	78	-0.41	0.17	1.0000 
	-11	-3	1	8	66	5	-0.41	-0.17	1.0000 
	11	2	1	337	169	295	0.94	-2.87	1.0000 
	11	2	-1	192	128	157	1.03	3.71	1.0000 
	2	-11	-1	311	147	268	-1.43	-2.49	1.0000 
	2	-11	1	584	178	528	-1.35	2.19	1.0000 
	11	1	1	18	136	105	3.63	-3.05	1.0000 
	11	1	-1	26	145	125	3.6	3.03	1.0000 
	1	-11	-1	304	188	540	-3.65	-2.27	1.0000 
	1	-11	1	233	176	439	-3.69	1.84	1.0000 
	11	-1	-1	127	179	288	-3.7	-2.08	1.0000 
	-1	-11	1	282	197	541	3.6	-3.03	1.0000 
	-1	-11	-1	426	218	744	3.65	3.14	1.0000 
	11	-1	1	119	163	273	-3.64	2	1.0000 
	11	-2	1	309	174	263	-1.44	2.36	1.0000 
	-2	-11	1	352	169	314	0.9	-3.13	1.0000 
	-2	-11	-1	605	206	570	0.88	3.39	1.0000 
	11	-2	-1	247	156	203	-1.5	-2.38	1.0000 
	11	-3	1	98	133	91	1.04	1.74	1.0000 
	-3	-11	1	267	157	243	-0.51	-0.04	1.0000 
	11	-3	-1	97	136	96	0.97	-1.94	1.0000 
	-3	-11	-1	103	124	93	-0.42	-0.24	1.0000 
	-4	-11	1	1	150	95	-3.85	4.52	1.0000 
	-4	-11	-1	39	147	247	-4.12	-4.84	1.0000 
	11	-4	1	83	178	301	4.99	-2.5	1.0000 
	11	-4	-1	8	135	25	5.06	0.83	1.0000 
	11	-5	1	247	205	513	1.88	-4.85	1.0000 
	11	-5	-1	200	210	407	1.92	4.13	1.0000 
	-5	-11	-1	182	154	342	-2.11	-3.08	1.0000 
	-5	-11	1	259	181	454	-1.57	3.68	1.0000 
	11	-6	-1	500	222	579	-1.1	0.56	1.0000 
	-6	-11	1	592	193	692	0.95	-2.08	1.0000 
	11	-6	1	403	213	474	-1.12	0.97	1.0000 
	-6	-11	-1	559	205	654	0.96	1.95	1.0000 
	-7	-11	-1	439	166	488	0.84	4.71	1.0000 
	11	-7	1	180	180	250	-1.93	5.97	1.0000 
	-7	-11	1	212	143	257	0.77	-5.56	1.0000 
	11	-7	-1	384	201	445	-1.55	-4.46	1.0000 
	-8	-11	1	248	154	305	0.56	-1.87	1.0000 
	11	-8	1	221	194	306	-1.78	0.18	1.0000 
	11	-8	-1	64	167	103	-1.49	-0.71	1.0000 
	-8	-11	-1	65	103	101	1.21	0.74	1.0000 
	-9	-11	1	156	164	343	-2.52	3.54	1.0000 
	-9	-11	-1	117	128	284	-2.04	-3.99	1.0000 
	11	-9	1	11	128	73	2.76	-4.25	1.0000 
	11	-9	-1	44	145	130	2.9	2.08	1.0000 
	11	-10	-1	354	225	483	2.1	0.23	1.0000 
	-10	-11	-1	201	126	338	-1.86	-2.33	1.0000 
	11	-10	1	80	148	171	2.15	-1.86	1.0000 
	-12	-9	1	202	136	272	1.51	-0.16	1.0000 
	12	8	-1	293	129	215	1.62	0.21	1.0000 
	-12	-8	1	571	124	460	1.62	-0.21	1.0000 
	12	7	1	357	156	372	0.16	-0.64	1.0000 
	12	7	-1	282	148	285	0.11	-0.51	1.0000 
	12	6	1	241	136	279	-0.74	0.46	1.0000 
	12	6	-1	486	166	531	-0.7	0.42	1.0000 
	12	5	-1	34	117	88	-2.29	1.2	1.0000 
	5	-12	1	9	107	47	2.57	0.56	1.0000 
	12	5	1	105	101	192	-2.39	-0.17	1.0000 
	5	-12	-1	26	72	-107	2.73	-2.03	1.0000 
	4	-12	-1	223	127	152	1.72	2.22	1.0000 
	12	4	1	82	100	67	-0.67	0.95	1.0000 
	12	4	-1	256	109	213	-1.12	-1.11	1.0000 
	4	-12	1	291	127	204	1.91	-2.51	1.0000 
	3	-12	1	279	134	297	0.26	-0.68	1.0000 
	12	3	-1	144	123	145	-0.18	-1.27	1.0000 
	12	3	1	105	114	109	-0.25	0.92	1.0000 
	3	-12	-1	296	158	308	0.07	1.01	1.0000 
	12	2	1	383	169	375	-0.49	-2.26	1.0000 
	2	-12	1	407	159	415	-0.2	3.03	1.0000 
	2	-12	-1	658	187	659	0.01	-3.13	1.0000 
	12	2	-1	469	201	478	-0.21	2.16	1.0000 
	12	1	-1	16	89	-37	0.5	2.63	1.0000 
	12	1	1	100	127	82	0.63	-2.13	1.0000 
	1	-12	1	56	116	51	-0.79	2.23	1.0000 
	1	-12	-1	143	134	137	-0.67	-1.66	1.0000 
	12	-1	1	62	136	61	-0.67	2.26	1.0000 
	-1	-12	-1	221	151	203	0.51	2.07	1.0000 
	12	-1	-1	310	191	303	-0.76	-1.73	1.0000 
	-1	-12	1	166	126	151	0.63	-2.72	1.0000 
	-2	-12	-1	515	190	503	-0.56	2.27	1.0000 
	-2	-12	1	570	204	575	-0.31	-2.22	1.0000 
	12	-2	-1	302	191	301	-0.11	-3.13	1.0000 
	12	-2	1	267	195	262	-0.05	3.04	1.0000 
	-3	-12	1	226	164	232	-0.22	1.02	1.0000 
	12	-3	1	93	163	98	0.06	-0.88	1.0000 
	-3	-12	-1	197	152	208	-0.37	-1.3	1.0000 
	12	-3	-1	123	169	136	0.26	0.98	1.0000 
	12	-4	-1	19	121	-39	1.73	2.29	1.0000 
	12	-4	1	281	180	201	1.81	-2.62	1.0000 
	-4	-12	1	217	173	187	-0.87	1.11	1.0000 
	-4	-12	-1	282	134	245	-0.92	-1.06	1.0000 
	12	-5	1	50	151	131	2.74	1.52	1.0000 
	-5	-12	1	13	84	-90	-2.36	-0.01	1.0000 
	-5	-12	-1	156	124	261	-2.24	1.58	1.0000 
	12	-5	-1	12	120	58	2.74	-1.14	1.0000 
	12	-6	1	149	164	189	0.07	2.89	1.0000 
	-6	-12	1	332	151	378	-0.82	-0.07	1.0000 
	-6	-12	-1	63	109	78	-0.6	-0.11	1.0000 
	12	-6	-1	503	218	545	0.14	-1.66	1.0000 
	-7	-12	1	420	145	437	0.24	-0.28	1.0000 
	12	-7	1	213	159	265	-0.9	-1.34	1.0000 
	-7	-12	-1	172	108	172	0.05	-0.55	1.0000 
	12	-7	-1	425	214	479	-0.72	0.8	1.0000 
	12	-8	-1	624	233	505	-1.61	1.24	1.0000 
	-8	-12	-1	345	130	257	1.68	0.19	1.0000 
	-8	-12	1	482	156	395	1.37	-0.26	1.0000 
	12	-8	1	15	115	-86	-1.89	-1.82	1.0000 
	12	-9	-1	594	224	679	-1.12	-1.16	1.0000 
	13	7	-1	116	109	163	-0.83	-2.79	1.0000 
	13	7	1	90	108	126	-0.9	1.84	1.0000 
	13	6	1	294	119	262	-0.61	0.85	1.0000 
	13	6	-1	323	176	295	-0.5	-0.72	1.0000 
	5	-13	-1	86	96	210	-0.37	-3.52	1.0000 
	13	5	1	9	79	-79	1.44	-1.47	1.0000 
	13	5	-1	1	80	12	1.34	2.64	1.0000 
	4	-13	1	323	107	257	-1.41	2.22	1.0000 
	13	4	1	23	95	-24	1.76	-2.66	1.0000 
	13	4	-1	30	100	-34	1.74	3.19	1.0000 
	4	-13	-1	63	94	26	-1.65	-2.53	1.0000 
	3	-13	1	360	136	328	0.48	-1.28	1.0000 
	13	3	1	1	90	-36	-0.37	-0.38	1.0000 
	3	-13	-1	136	123	125	0.28	0.42	1.0000 
	13	3	-1	204	123	191	-0.32	-0.07	1.0000 
	13	2	1	236	157	271	-0.56	1.83	1.0000 
	13	2	-1	274	165	310	-0.57	-1.37	1.0000 
	2	-13	-1	458	184	494	0.65	2.1	1.0000 
	2	-13	1	871	194	913	0.54	-1.65	1.0000 
	13	1	1	326	122	250	-1.52	1.85	1.0000 
	13	1	-1	125	103	77	-1.55	-0.99	1.0000 
	1	-13	1	299	137	255	1.03	-0.82	1.0000 
	1	-13	-1	166	145	136	1.25	2.03	1.0000 
	-1	-13	-1	162	131	104	-1.63	-1.75	1.0000 
	-1	-13	1	452	165	364	-1.43	1.17	1.0000 
	13	-1	-1	78	125	54	1.18	1.36	1.0000 
	13	-1	1	137	104	108	1.14	-1.5	1.0000 
	-2	-13	1	801	234	864	-0.52	1.64	1.0000 
	13	-2	1	100	181	112	0.59	-1.72	1.0000 
	-2	-13	-1	501	189	554	-0.6	-1.53	1.0000 
	13	-2	-1	485	239	516	0.56	2.17	1.0000 
	-3	-13	1	431	175	413	-0.34	0.37	1.0000 
	13	-3	-1	173	166	156	0.36	1	1.0000 
	13	-3	1	189	167	179	0.18	-0.8	1.0000 
	-3	-13	-1	150	130	132	-0.43	0.78	1.0000 
	13	-4	1	172	157	121	-1.51	2.54	1.0000 
	-4	-13	1	80	123	57	1.58	-2.97	1.0000 
	13	-4	-1	63	123	29	-1.5	-2.07	1.0000 
	-4	-13	-1	302	156	280	1.63	2.97	1.0000 
	13	-5	-1	150	194	308	-0.26	-3.59	1.0000 
	-5	-13	-1	124	140	192	1.44	1.17	1.0000 
	13	-5	1	24	154	116	-0.19	3.98	1.0000 
	-5	-13	1	11	91	64	1.25	-2.93	1.0000 
	13	-6	1	302	149	259	0.86	-0.01	1.0000 
	-6	-13	-1	390	148	363	-0.45	-1.15	1.0000 
	13	-6	-1	2	140	-19	0.9	-0.31	1.0000 
	-6	-13	1	231	132	199	-0.7	0.45	1.0000 
	13	-7	-1	287	199	344	1.01	2.96	1.0000 
	14	5	1	98	114	89	0.36	0.26	1.0000 
	14	4	1	64	131	112	1.34	-2.38	1.0000 
	4	-14	1	114	119	192	-1.8	3.17	1.0000 
	14	4	-1	70	129	133	1.54	2.99	1.0000 
	4	-14	-1	61	83	106	-1.56	-3.03	1.0000 
	14	3	1	362	154	296	1.17	-0.91	1.0000 
	3	-14	-1	406	136	368	-0.84	-1.1	1.0000 
	14	3	-1	490	167	418	1.09	0.67	1.0000 
	14	2	1	301	139	250	-1.06	2.21	1.0000 
	2	-14	1	369	140	325	1.16	-1.76	1.0000 
	2	-14	-1	440	145	405	1.05	2.08	1.0000 
	14	2	-1	158	117	112	-1.27	-2.25	1.0000 
	1	-14	1	158	121	259	1.85	-2.22	1.0000 
	14	1	-1	16	124	53	-2.42	-2.3	1.0000 
	14	1	1	245	199	385	-2.46	2.08	1.0000 
	1	-14	-1	162	145	263	1.8	2.22	1.0000 
	-1	-14	-1	309	185	465	-2.45	-2.11	1.0000 
	14	-1	-1	170	162	268	1.81	1.95	1.0000 
	-1	-14	1	247	157	394	-2.51	2.31	1.0000 
	14	-1	1	63	135	132	1.82	-2.5	1.0000 
	-2	-14	-1	342	167	289	-1.06	-2.4	1.0000 
	14	-2	-1	254	162	222	1.04	1.83	1.0000 
	14	-2	1	13	129	-4	1.16	-2.08	1.0000 
	-2	-14	1	433	174	365	-1.21	2.2	1.0000 
	-3	-14	1	671	181	581	1.17	-0.63	1.0000 
	14	-3	-1	15	127	6	-0.89	-1.1	1.0000 
	14	-3	1	350	194	312	-0.89	1.05	1.0000 
	-3	-14	-1	301	133	243	1.14	0.97	1.0000 
	1	0	-2	61404	2426	68799	9.87	-8.14	1.0000 
	1	-1	-2	4189	252	5768	-2.57	-11.05	1.0000 
	-1	-1	2	5206	242	6208	-1.76	7.55	1.0000 
	-1	-1	-2	5077	259	5968	-1.3	-6.86	1.0000 
	1	1	-2	4874	271	5842	-1.76	-7.55	1.0000 
	1	-1	2	4785	213	6457	-3.67	11.22	1.0000 
	1	1	2	5061	247	5950	-1.3	6.86	1.0000 
	-1	-1	-2	4949	229	5828	-1.3	-6.86	1.0000 
	-2	-1	-2	787	112	1872	-10.31	-0.79	1.0000 
	2	1	2	853	136	1974	-10.31	0.79	1.0000 
	2	1	-2	837	150	1973	-10.43	-3.56	1.0000 
	1	-2	2	776	117	1995	-11.18	4.84	1.0000 
	-2	-1	2	998	141	2220	-10.43	3.56	1.0000 
	0	-2	-2	16298	737	20035	-8.4	-8.7	1.0000 
	-2	0	-2	15424	635	18944	-8.35	-7.08	1.0000 
	0	-2	2	16180	669	19737	-8.47	5.32	1.0000 
	2	0	-2	16449	768	20178	-8.61	-6.9	1.0000 
	1	2	-2	703	146	1762	-10.5	-2.45	1.0000 
	-1	-2	-2	894	133	2024	-10.24	-1.79	1.0000 
	-1	-2	-2	892	132	2021	-10.24	-1.79	1.0000 
	1	2	2	881	115	2004	-10.24	1.79	1.0000 
	2	-1	-2	739	138	1873	-10.88	-3.17	1.0000 
	-1	-2	2	866	138	2018	-10.5	2.45	1.0000 
	-2	-2	2	1140	88	507	-7.85	3.93	1.0000 
	-2	-2	-2	1042	72	401	-8.17	0.41	1.0000 
	2	2	-2	989	87	405	-7.85	-3.93	1.0000 
	-2	-2	-2	980	79	363	-8.17	0.41	1.0000 
	2	2	2	1153	75	471	-8.17	-0.41	1.0000 
	-3	-2	-2	2403	159	2505	-0.13	-3.74	1.0000 
	3	2	2	2452	186	2555	-0.13	3.74	1.0000 
	3	2	-2	1948	191	2072	0.32	-6.02	1.0000 
	-3	-2	2	2283	175	2423	0.32	6.02	1.0000 
	1	-3	-2	2593	180	2446	-1.05	1.1	1.0000 
	-3	-1	2	3260	182	2962	-1.79	-0.02	1.0000 
	3	1	2	2852	188	2539	-2.01	-0.02	1.0000 
	1	-3	2	2874	168	2682	-1.3	-1.08	1.0000 
	-3	-1	-2	3184	154	2853	-2.01	0.02	1.0000 
	3	1	-2	3351	213	3049	-1.79	0.02	1.0000 
	3	0	-2	1248	188	2262	-8.02	-1.66	1.0000 
	0	-3	2	1152	153	2173	-8.43	0.67	1.0000 
	-3	0	-2	1446	125	2499	-7.8	-1.9	1.0000 
	0	-3	-2	1598	172	2691	-7.57	-3.03	1.0000 
	-1	-3	-2	2949	174	2656	-1.85	0.03	1.0000 
	1	3	2	2942	162	2649	-1.85	-0.03	1.0000 
	3	-1	-2	2902	196	2713	-1.28	1.22	1.0000 
	-1	-3	-2	2942	176	2649	-1.85	0.03	1.0000 
	-1	-3	2	3110	179	2784	-2	0.1	1.0000 
	-2	-3	2	2416	186	2588	0.21	6.2	1.0000 
	2	3	-2	2205	199	2366	0.21	-6.2	1.0000 
	2	3	2	2370	171	2457	-0.03	3.74	1.0000 
	-2	-3	-2	2728	183	2823	-0.03	-3.74	1.0000 
	-2	-3	-2	2625	182	2718	-0.03	-3.74	1.0000 
	3	-2	-2	2392	197	2488	-0.54	-1.42	1.0000 
	-3	-3	2	690	154	1443	-7.32	4.84	1.0000 
	-3	-3	-2	695	143	1423	-7.19	-4.12	1.0000 
	3	3	2	793	149	1564	-7.19	4.12	1.0000 
	3	3	-2	703	172	1462	-7.32	-4.84	1.0000 
	-4	-3	2	7638	363	7140	-2.02	-1.88	1.0000 
	-4	-3	-2	7439	346	6947	-1.97	0.78	1.0000 
	4	3	-2	7311	413	6824	-2.02	1.88	1.0000 
	4	3	2	8011	398	7501	-1.97	-0.78	1.0000 
	4	2	2	1265	199	2168	7.45	1.63	1.0000 
	2	-4	2	1260	163	2110	7.06	1.11	1.0000 
	4	2	-2	1121	197	1959	7.31	-1.74	1.0000 
	-4	-2	2	1447	182	2385	7.31	1.74	1.0000 
	-4	-2	-2	1179	156	2055	7.45	-1.63	1.0000 
	1	-4	-2	21694	860	20783	2.1	-0.17	1.0000 
	4	1	2	21856	915	21091	1.75	0.13	1.0000 
	1	-4	2	24128	810	23182	1.99	-1.22	1.0000 
	-4	-1	2	23828	808	23000	1.79	-0.28	1.0000 
	4	1	-2	23964	941	23134	1.79	0.28	1.0000 
	-4	-1	-2	23047	771	22261	1.75	-0.13	1.0000 
	4	0	2	32909	1175	29275	-7.07	-2.57	1.0000 
	4	0	-2	34183	1188	30437	-7.14	2.45	1.0000 
	0	-4	2	30962	1026	27222	-7.55	-3.08	1.0000 
	0	-4	2	35139	1044	31149	-7.55	-3.08	1.0000 
	0	-4	-2	32421	1098	28835	-6.99	2.07	1.0000 
	-4	0	-2	33628	973	29954	-7.07	2.57	1.0000 
	4	-1	2	23769	930	22817	2.04	-0.77	1.0000 
	-1	-4	-2	22212	818	21476	1.69	-0.49	1.0000 
	-1	-4	2	24326	782	23473	1.8	-0.77	1.0000 
	4	-1	-2	23815	925	22828	2.15	0.14	1.0000 
	-1	-4	2	22247	811	21432	1.8	-0.77	1.0000 
	-1	-4	-2	21101	843	20383	1.69	-0.49	1.0000 
	2	4	-2	975	182	1776	7.38	-1.13	1.0000 
	-2	-4	2	1352	184	2275	7.38	1.13	1.0000 
	-2	-4	-2	881	162	1646	7.41	-2.28	1.0000 
	2	4	2	1136	161	1991	7.41	2.28	1.0000 
	4	-2	-2	1576	207	2522	7.12	-1.49	1.0000 
	-2	-4	-2	902	157	1675	7.41	-2.28	1.0000 
	3	4	2	7727	383	7265	-1.82	-0.96	1.0000 
	-3	-4	2	7828	373	7238	-2.33	-1.43	1.0000 
	4	-3	-2	8126	416	7553	-2.17	0.31	1.0000 
	-3	-4	-2	8144	374	7670	-1.82	0.96	1.0000 
	3	4	-2	8296	423	7689	-2.33	1.43	1.0000 
	-3	-4	-2	7533	366	7077	-1.82	0.96	1.0000 
	4	4	2	47019	1957	51232	-6.19	3.21	1.0000 
	-4	-4	2	44729	1758	48708	-6.02	2.82	1.0000 
	4	4	-2	50593	2008	54821	-6.02	-2.82	1.0000 
	-4	-4	-2	47348	1757	51575	-6.19	-3.21	1.0000 
	5	4	2	34173	1303	32674	-2.57	4.17	1.0000 
	-5	-4	2	32935	1164	31522	-2.45	4.58	1.0000 
	-5	-4	-2	32856	1140	31386	-2.57	-4.17	1.0000 
	5	4	-2	30851	1308	29482	-2.45	-4.58	1.0000 
	-5	-3	-2	2619	176	1942	4.82	-0.75	1.0000 
	5	3	2	2441	210	1789	4.82	0.75	1.0000 
	5	3	-2	2842	227	2158	4.62	-0.35	1.0000 
	-5	-3	2	2743	193	2072	4.62	0.35	1.0000 
	-5	-2	-2	2336	141	1515	6.23	0.9	1.0000 
	2	-5	2	2195	159	1496	5.32	-2.71	1.0000 
	-5	-2	2	2751	175	1862	6.1	-1.99	1.0000 
	5	2	-2	2053	188	1296	6.1	1.99	1.0000 
	2	-5	-2	2267	171	1501	5.83	1.42	1.0000 
	5	2	2	2023	180	1265	6.23	-0.9	1.0000 
	5	1	2	22880	1093	23623	1.36	-3.47	1.0000 
	1	-5	-2	25669	1026	26311	1.13	2.68	1.0000 
	-5	-1	2	27217	966	28176	1.7	-2.91	1.0000 
	-5	-1	-2	25125	915	25905	1.36	3.47	1.0000 
	1	-5	2	26448	971	27006	0.86	-3.55	1.0000 
	5	1	-2	26961	1129	27916	1.7	2.91	1.0000 
	5	0	-2	29411	1231	30259	-1.88	4.06	1.0000 
	0	-5	2	26877	1064	27745	-2	-4.1	1.0000 
	0	-5	-2	28831	1085	29656	-1.86	4.2	1.0000 
	-5	0	-2	28210	996	29000	-1.8	4.17	1.0000 
	0	-5	-2	29303	1124	30135	-1.86	4.2	1.0000 
	5	0	2	30207	1231	31025	-1.8	-4.17	1.0000 
	5	-1	2	25903	1107	26580	1.17	-2.98	1.0000 
	5	-1	-2	26388	1109	26981	0.95	3.31	1.0000 
	-1	-5	-2	24763	978	25551	1.46	2.67	1.0000 
	-1	-5	-2	24313	998	25093	1.46	2.67	1.0000 
	-1	-5	2	25303	972	26152	1.46	-3.86	1.0000 
	-1	-5	2	25842	927	26700	1.46	-3.86	1.0000 
	5	-2	-2	2253	198	1504	5.71	1.41	1.0000 
	-2	-5	-2	2530	157	1685	6.15	0.5	1.0000 
	-2	-5	-2	3198	210	2237	6.15	0.5	1.0000 
	-2	-5	2	2429	186	1596	6.11	-2.26	1.0000 
	-3	-5	-2	3067	206	2325	4.86	-0.76	1.0000 
	-3	-5	-2	2962	189	2234	4.86	-0.76	1.0000 
	5	-3	-2	2721	219	2072	4.6	-1.62	1.0000 
	3	5	2	2960	195	2232	4.86	0.76	1.0000 
	3	5	-2	2691	232	2036	4.58	-0.68	1.0000 
	-3	-5	2	2999	210	2305	4.58	0.68	1.0000 
	-4	-5	2	31643	1145	30151	-2.66	4.62	1.0000 
	4	5	2	30757	1246	29389	-2.46	4.28	1.0000 
	5	-4	-2	33099	1295	31792	-2.34	-1.71	1.0000 
	4	5	-2	33384	1298	31853	-2.66	-4.62	1.0000 
	-4	-5	-2	31756	1147	30366	-2.46	-4.28	1.0000 
	5	5	-2	36451	1657	39709	-5.39	-2.62	1.0000 
	5	5	2	38697	1626	42071	-5.36	3.38	1.0000 
	-5	-5	-2	37177	1462	40485	-5.36	-3.38	1.0000 
	-5	-5	2	35882	1463	39115	-5.39	2.62	1.0000 
	-6	-5	-2	16536	708	16211	-0.83	-0.31	1.0000 
	6	5	2	13727	768	13431	-0.83	0.31	1.0000 
	-6	-5	2	16979	735	16611	-0.94	0.15	1.0000 
	6	5	-2	18160	852	17780	-0.94	-0.15	1.0000 
	6	4	-2	10710	639	10343	1.13	1.02	1.0000 
	-6	-4	2	13041	584	12636	1.13	-1.02	1.0000 
	-6	-4	-2	12594	555	12021	1.62	1.72	1.0000 
	6	4	2	13406	655	12815	1.62	-1.72	1.0000 
	-6	-3	2	257	123	380	2.27	-0.36	1.0000 
	-6	-3	-2	167	89	269	2.29	0.4	1.0000 
	3	-6	2	174	103	291	2.57	-0.3	1.0000 
	6	3	2	271	132	398	2.29	-0.4	1.0000 
	6	3	-2	248	134	369	2.27	0.36	1.0000 
	-6	-2	2	4402	281	4217	-1.12	-2.29	1.0000 
	6	2	2	4432	332	4235	-1.06	-1.03	1.0000 
	2	-6	-2	4726	293	4488	-1.31	1.88	1.0000 
	2	-6	2	4599	283	4329	-1.56	-2.59	1.0000 
	-6	-2	-2	4537	259	4338	-1.06	1.03	1.0000 
	6	2	-2	4913	364	4718	-1.12	2.29	1.0000 
	-6	-1	-2	37498	1224	36329	1.94	2.59	1.0000 
	1	-6	2	33570	1276	33063	0.88	-1.1	1.0000 
	1	-6	-2	37934	1366	37129	1.34	1.29	1.0000 
	1	-6	2	36873	1304	36342	0.88	-1.1	1.0000 
	1	-6	-2	34303	1300	33537	1.34	1.29	1.0000 
	6	1	2	35635	1465	34496	1.94	-2.59	1.0000 
	6	1	-2	37235	1481	36077	1.94	2.08	1.0000 
	-6	-1	2	40090	1275	38889	1.94	-2.08	1.0000 
	0	-6	-2	51943	2001	56251	6.14	0.96	1.0000 
	6	0	-2	52538	2166	56871	6.16	0.56	1.0000 
	0	-6	-2	47342	1890	51459	6.14	0.96	1.0000 
	0	-6	2	52374	1934	56707	6.19	-0.24	1.0000 
	0	-6	2	50178	1895	54421	6.19	-0.24	1.0000 
	6	0	2	51330	2149	55647	6.2	-0.68	1.0000 
	-1	-6	2	38910	1346	37764	1.87	-2.26	1.0000 
	-1	-6	-2	39195	1357	37996	1.95	2.49	1.0000 
	-1	-6	2	36527	1300	35417	1.87	-2.26	1.0000 
	-1	-6	-2	34798	1374	33668	1.95	2.49	1.0000 
	6	-1	2	41488	1551	40651	1.33	-1.09	1.0000 
	6	-1	-2	37599	1529	36936	1.09	1.4	1.0000 
	-2	-6	2	4584	302	4365	-1.23	-1.81	1.0000 
	-2	-6	-2	4011	299	3812	-1.15	1.34	1.0000 
	6	-2	-2	5301	358	5045	-1.29	1.45	1.0000 
	6	-2	2	4317	342	4058	-1.56	-2.7	1.0000 
	-2	-6	-2	4775	267	4558	-1.15	1.34	1.0000 
	3	6	2	287	112	415	2.28	-0.23	1.0000 
	6	-3	-2	121	108	222	2.57	0.41	1.0000 
	3	6	-2	55	99	120	2.32	0.58	1.0000 
	-3	-6	-2	167	111	268	2.28	0.23	1.0000 
	-3	-6	2	212	124	329	2.32	-0.58	1.0000 
	-3	-6	-2	308	93	440	2.28	0.23	1.0000 
	-4	-6	-2	12800	581	12256	1.55	1.3	1.0000 
	6	-4	-2	12893	653	12254	1.87	0.49	1.0000 
	4	6	2	11412	586	10898	1.55	-1.3	1.0000 
	-4	-6	2	12763	586	12326	1.21	-1.62	1.0000 
	4	6	-2	10926	621	10521	1.21	1.62	1.0000 
	5	6	-2	16705	841	16339	-0.96	0.09	1.0000 
	5	6	2	17030	810	16649	-0.93	0.68	1.0000 
	-5	-6	2	17233	760	16861	-0.96	-0.09	1.0000 
	-5	-6	-2	17144	753	16762	-0.93	-0.68	1.0000 
	6	-5	-2	17878	865	17693	-0.35	-1.69	1.0000 
	6	6	2	5815	423	6241	-1.69	1.44	1.0000 
	-6	-6	-2	5446	383	5859	-1.69	-1.44	1.0000 
	-6	-6	2	5194	395	5538	-1.38	1.79	1.0000 
	6	6	-2	5885	457	6251	-1.38	-1.79	1.0000 
	7	6	2	2570	292	2342	-1.48	1.03	1.0000 
	-7	-6	2	2318	274	2167	-1	1.78	1.0000 
	-7	-6	-2	2604	267	2375	-1.48	-1.03	1.0000 
	7	6	-2	3115	338	2940	-1	-1.78	1.0000 
	-7	-5	-2	6562	388	6174	1.6	0.48	1.0000 
	7	5	-2	6798	475	6406	1.61	-0.01	1.0000 
	7	5	2	6109	443	5735	1.6	-0.48	1.0000 
	-7	-5	2	6324	404	5946	1.61	0.01	1.0000 
	-7	-4	-2	4798	332	5112	1.41	1.29	1.0000 
	7	4	2	4740	397	5052	1.41	-1.29	1.0000 
	7	4	-2	4749	414	4961	0.91	1.62	1.0000 
	4	-7	2	4921	332	5137	0.99	-0.59	1.0000 
	-7	-4	2	5198	357	5420	0.91	-1.62	1.0000 
	7	3	2	203	125	195	0.14	-1.21	1.0000 
	3	-7	-2	123	98	125	-0.15	1.4	1.0000 
	-7	-3	2	517	144	495	0.3	-0.94	1.0000 
	3	-7	2	330	122	318	0.19	-0.77	1.0000 
	7	3	-2	277	131	260	0.3	0.94	1.0000 
	-7	-3	-2	314	106	305	0.14	1.21	1.0000 
	2	-7	-2	11	63	-15	-1.06	-1.88	1.0000 
	-7	-2	-2	212	88	197	-0.58	1.59	1.0000 
	2	-7	2	135	104	151	-0.68	1.6	1.0000 
	7	2	2	92	93	80	-0.58	-1.59	1.0000 
	7	2	-2	127	97	102	-0.7	0.82	1.0000 
	-7	-2	2	244	103	209	-0.7	-0.82	1.0000 
	-7	-1	2	3303	252	3455	0.8	-0.99	1.0000 
	1	-7	-2	3372	260	3475	0.6	-0.12	1.0000 
	1	-7	2	3595	224	3684	0.51	0.16	1.0000 
	7	1	-2	3359	326	3512	0.8	0.99	1.0000 
	7	1	2	3789	340	3950	0.76	-1.27	1.0000 
	1	-7	-2	3685	303	3793	0.6	-0.12	1.0000 
	1	-7	2	3252	271	3337	0.51	0.16	1.0000 
	-7	-1	-2	3691	236	3850	0.76	1.27	1.0000 
	0	-7	-2	5281	346	4750	2.41	2.47	1.0000 
	0	-7	2	5704	262	5126	2.54	-1.93	1.0000 
	0	-7	-2	6671	331	6074	2.41	2.47	1.0000 
	7	0	2	5361	388	4801	2.53	-2.31	1.0000 
	0	-7	2	5992	352	5400	2.54	-1.93	1.0000 
	7	0	-2	6264	423	5663	2.51	2.3	1.0000 
	7	-1	-2	3147	317	3228	0.49	-0.26	1.0000 
	-1	-7	2	3442	292	3600	0.81	-1.04	1.0000 
	-1	-7	-2	4055	269	4227	0.81	1.11	1.0000 
	-1	-7	-2	3019	286	3167	0.81	1.11	1.0000 
	7	-1	2	4056	355	4196	0.73	0.06	1.0000 
	-2	-7	-2	80	106	63	-0.63	1.17	1.0000 
	7	-2	-2	21	87	21	-0.85	-1.62	1.0000 
	-2	-7	2	126	104	104	-0.66	-1.05	1.0000 
	7	-2	2	11	80	-42	-0.96	1.96	1.0000 
	-2	-7	-2	218	74	192	-0.63	1.17	1.0000 
	-3	-7	-2	183	116	174	0.18	1.4	1.0000 
	-3	-7	2	506	160	492	0.18	-0.84	1.0000 
	7	-3	-2	325	140	330	-0.11	1.43	1.0000 
	7	-3	2	354	149	343	0.16	-0.76	1.0000 
	-3	-7	-2	289	92	279	0.18	1.4	1.0000 
	-4	-7	2	4558	366	4803	1.11	-1.42	1.0000 
	7	-4	2	4453	422	4714	1.23	-0.94	1.0000 
	-4	-7	-2	4697	364	4958	1.15	1.62	1.0000 
	4	7	2	5207	373	5482	1.15	-1.62	1.0000 
	7	-4	-2	5635	438	5881	1.05	0.67	1.0000 
	4	7	-2	4757	395	5007	1.11	1.42	1.0000 
	-5	-7	-2	5604	383	5268	1.52	-0.01	1.0000 
	7	-5	-2	6860	473	6390	1.99	-0.93	1.0000 
	5	7	-2	6159	440	5784	1.61	0.2	1.0000 
	5	7	2	6284	409	5928	1.52	0.01	1.0000 
	-5	-7	2	5659	389	5300	1.61	-0.2	1.0000 
	6	7	2	2802	274	2610	-1.17	1.31	1.0000 
	7	-6	-2	2470	319	2342	-0.89	0.26	1.0000 
	-6	-7	-2	2679	284	2491	-1.17	-1.31	1.0000 
	-6	-7	2	2883	310	2665	-1.32	1.55	1.0000 
	6	7	-2	3025	336	2801	-1.32	-1.55	1.0000 
	-7	-7	2	3035	315	3311	-1.51	2.48	1.0000 
	7	7	-2	2963	345	3235	-1.51	-2.48	1.0000 
	-7	-7	-2	2870	304	3136	-1.53	-1.96	1.0000 
	7	-7	-2	3095	394	3433	-1.98	0.32	1.0000 
	7	7	2	2420	294	2664	-1.53	1.96	1.0000 
	8	7	2	339	104	291	1.34	0.93	1.0000 
	-8	-7	2	54	106	35	1.42	1.26	1.0000 
	8	7	-2	11	68	1	1.42	-1.26	1.0000 
	7	-8	-2	7	119	2	0.77	-0.64	1.0000 
	-8	-7	-2	199	108	161	1.34	-0.93	1.0000 
	-8	-6	-2	1336	231	1438	0.96	-1.52	1.0000 
	-8	-6	2	1749	272	1891	1.15	1.22	1.0000 
	6	-8	2	1845	231	1960	0.91	0.73	1.0000 
	8	6	2	1696	278	1811	0.96	1.52	1.0000 
	8	6	-2	1566	292	1700	1.15	-1.22	1.0000 
	8	5	-2	979	224	871	1.24	-0.54	1.0000 
	-8	-5	2	1031	198	920	1.24	0.54	1.0000 
	-8	-5	-2	1078	188	966	1.22	-0.58	1.0000 
	8	5	2	1392	237	1265	1.22	0.58	1.0000 
	5	-8	2	1067	177	988	0.86	0.41	1.0000 
	-8	-4	-2	446	129	434	-0.17	-0.21	1.0000 
	8	4	-2	531	183	525	-0.08	-0.06	1.0000 
	-8	-4	2	697	178	690	-0.08	0.06	1.0000 
	4	-8	2	399	132	388	-0.16	0.41	1.0000 
	4	-8	-2	550	154	534	-0.2	-0.31	1.0000 
	8	4	2	605	167	591	-0.17	0.21	1.0000 
	8	3	-2	216	139	256	-0.81	-0.69	1.0000 
	-8	-3	-2	333	118	401	-1.2	0.39	1.0000 
	-8	-3	2	356	140	408	-0.81	0.69	1.0000 
	8	3	2	336	167	404	-1.2	-0.39	1.0000 
	3	-8	-2	429	136	518	-1.3	1.4	1.0000 
	3	-8	2	273	131	350	-1.47	-0.61	1.0000 
	2	-8	-2	2495	225	2433	0.43	-0.56	1.0000 
	2	-8	2	2358	254	2258	0.72	1.03	1.0000 
	2	-8	-2	2245	259	2186	0.43	-0.56	1.0000 
	-8	-2	2	2493	229	2388	0.7	-0.22	1.0000 
	8	2	2	2387	296	2265	0.85	-1.93	1.0000 
	8	2	-2	2485	317	2380	0.7	0.22	1.0000 
	-8	-2	-2	2708	217	2579	0.85	1.93	1.0000 
	1	-8	-2	3588	273	3775	1.03	-0.09	1.0000 
	8	1	-2	3712	362	3794	0.43	0.37	1.0000 
	1	-8	2	3249	288	3435	1.09	0.52	1.0000 
	8	1	2	3256	338	3343	0.49	-0.37	1.0000 
	1	-8	-2	3281	298	3459	1.03	-0.09	1.0000 
	-8	-1	-2	2881	221	2963	0.49	0.37	1.0000 
	8	0	2	3020	325	3117	-0.55	0.51	1.0000 
	0	-8	2	2841	279	2973	-0.79	0.46	1.0000 
	0	-8	-2	2752	234	2822	-0.44	-0.09	1.0000 
	8	0	-2	2557	332	2654	-0.63	-0.12	1.0000 
	0	-8	-2	2818	296	2889	-0.44	-0.09	1.0000 
	-1	-8	-2	3326	246	3401	0.42	0.27	1.0000 
	8	-1	2	3901	364	4106	1.1	0.44	1.0000 
	8	-1	-2	2430	327	2579	1.01	-0.37	1.0000 
	-1	-8	2	3240	299	3321	0.46	-0.26	1.0000 
	-1	-8	-2	3030	295	3101	0.42	0.27	1.0000 
	-2	-8	2	2705	284	2565	0.91	-0.78	1.0000 
	-2	-8	-2	2712	293	2600	0.72	1.23	1.0000 
	8	-2	2	2513	322	2438	0.55	1.33	1.0000 
	8	-2	-2	2367	308	2273	0.65	-0.13	1.0000 
	-3	-8	-2	307	149	355	-0.89	-0.01	1.0000 
	8	-3	2	300	158	368	-1.25	-0.53	1.0000 
	8	-3	-2	256	160	332	-1.43	1.38	1.0000 
	-3	-8	2	413	172	483	-1.07	0.4	1.0000 
	-4	-8	-2	566	172	553	-0.14	-0.53	1.0000 
	-4	-8	2	500	173	493	-0.11	0.03	1.0000 
	8	-4	-2	684	204	663	-0.22	-0.65	1.0000 
	8	-4	2	525	193	520	-0.06	0.14	1.0000 
	8	-5	2	1140	255	1054	0.9	0.36	1.0000 
	5	8	-2	1040	208	935	1.14	-0.22	1.0000 
	5	8	2	1230	203	1112	1.23	0.79	1.0000 
	-5	-8	2	1169	217	1058	1.14	0.22	1.0000 
	8	-5	-2	1297	255	1219	0.79	-0.67	1.0000 
	-5	-8	-2	1433	246	1305	1.23	-0.79	1.0000 
	-6	-8	2	1892	290	2035	1.12	1.54	1.0000 
	6	8	2	1807	270	1937	1.04	1.11	1.0000 
	8	-6	2	1851	336	1973	0.96	0.68	1.0000 
	8	-6	-2	1797	316	1903	0.84	-0.4	1.0000 
	-6	-8	-2	1656	272	1780	1.04	-1.11	1.0000 
	6	8	-2	1499	277	1626	1.12	-1.54	1.0000 
	8	-7	-2	89	137	68	1.05	-0.78	1.0000 
	7	8	-2	229	97	209	1.79	-1.92	1.0000 
	-7	-8	2	38	114	21	1.79	1.92	1.0000 
	-7	-8	-2	235	118	191	1.17	-0.47	1.0000 
	7	8	2	12	73	3	1.17	0.47	1.0000 
	8	-8	-2	869	240	859	-0.15	1.78	1.0000 
	8	8	2	1120	228	1131	0.08	-1.7	1.0000 
	-8	-8	-2	893	217	902	0.08	1.7	1.0000 
	-8	-8	2	978	226	1019	0.43	-0.95	1.0000 
	8	8	-2	852	223	890	0.43	0.95	1.0000 
	-9	-8	-2	39	89	120	-2.01	2.74	1.0000 
	-9	-8	2	50	117	153	-1.73	-3.27	1.0000 
	9	8	2	3	66	16	-2.01	-2.74	1.0000 
	9	8	-2	2	74	27	-1.73	3.27	1.0000 
	8	-9	-2	32	115	-137	-1.52	3.42	1.0000 
	-9	-7	-2	105	104	136	0.35	1.87	1.0000 
	9	7	2	186	111	228	0.35	-1.87	1.0000 
	-9	-7	2	69	115	91	0.33	-1.76	1.0000 
	9	7	-2	299	163	349	0.33	1.76	1.0000 
	-9	-6	2	4850	376	4683	0.93	1.07	1.0000 
	9	6	-2	3399	407	3259	0.93	-1.07	1.0000 
	-9	-6	-2	4767	351	4516	1.45	-1.69	1.0000 
	9	6	2	3627	363	3407	1.45	1.69	1.0000 
	-9	-5	-2	7145	449	7147	0.22	-3.13	1.0000 
	5	-9	-2	7358	493	7267	-0.3	-0.58	1.0000 
	9	5	-2	6809	548	6781	0.09	-2.95	1.0000 
	9	5	2	6927	537	6929	0.22	3.13	1.0000 
	5	-9	2	6357	418	6298	-0.25	0.04	1.0000 
	-9	-5	2	7929	488	7900	0.09	2.95	1.0000 
	4	-9	2	4291	322	4105	1.07	0.9	1.0000 
	4	-9	-2	3283	309	3137	1.04	-1.43	1.0000 
	4	-9	-2	3836	327	3679	1.04	-1.43	1.0000 
	9	4	-2	3799	386	3671	0.69	0.1	1.0000 
	-9	-4	-2	3955	294	3831	0.58	0.91	1.0000 
	-9	-4	2	3806	313	3678	0.69	-0.1	1.0000 
	9	4	2	3251	374	3138	0.58	-0.91	1.0000 
	9	3	2	866	217	792	-1.02	-1.28	1.0000 
	-9	-3	2	787	170	721	-0.87	-0.65	1.0000 
	3	-9	-2	1082	176	1033	-0.45	-1.33	1.0000 
	3	-9	2	1196	205	1144	-0.45	1.41	1.0000 
	-9	-3	-2	799	149	728	-1.02	1.28	1.0000 
	9	3	-2	906	230	835	-0.87	0.65	1.0000 
	3	-9	-2	593	160	556	-0.45	-1.33	1.0000 
	9	2	2	3191	354	3022	-1.08	-1.14	1.0000 
	2	-9	-2	3345	321	3119	-1.42	1.44	1.0000 
	9	2	-2	2623	346	2482	-0.99	0.94	1.0000 
	-9	-2	2	3232	264	3076	-0.99	-0.94	1.0000 
	-9	-2	-2	2838	228	2679	-1.08	1.14	1.0000 
	2	-9	2	2734	286	2571	-1.12	-0.97	1.0000 
	9	1	2	5472	469	5401	0.3	-0.23	1.0000 
	1	-9	2	5992	421	5981	-0.01	-0.7	1.0000 
	9	1	-2	6892	512	6833	0.23	0.15	1.0000 
	1	-9	-2	5640	416	5644	-0.09	1.01	1.0000 
	0	-9	2	4374	362	4394	0.35	2.76	1.0000 
	9	0	-2	4447	425	4460	0.31	-2.74	1.0000 
	0	-9	-2	5141	391	5161	0.32	-2.61	1.0000 
	9	0	2	4750	428	4751	0.26	2.92	1.0000 
	-1	-9	-2	5468	416	5415	0.21	0.42	1.0000 
	9	-1	2	6888	515	6886	-0.05	-0.76	1.0000 
	-1	-9	2	6168	432	6066	0.44	-0.03	1.0000 
	9	-1	-2	5730	487	5724	-0.04	0.87	1.0000 
	9	-2	2	2627	345	2464	-1.16	-1.23	1.0000 
	9	-2	-2	3226	372	3026	-1.29	1.42	1.0000 
	-2	-9	-2	3315	335	3150	-1.05	1.27	1.0000 
	-2	-9	2	3049	323	2892	-1.03	-1.04	1.0000 
	-3	-9	2	1460	252	1376	-0.9	-1.21	1.0000 
	9	-3	2	758	234	714	-0.47	1.42	1.0000 
	-3	-9	-2	1373	244	1281	-0.93	0.82	1.0000 
	9	-3	-2	1026	237	978	-0.45	-1.02	1.0000 
	9	-4	-2	4338	414	4172	0.95	-0.8	1.0000 
	9	-4	2	4011	412	3850	0.97	0.86	1.0000 
	-4	-9	2	3983	357	3833	0.72	-0.89	1.0000 
	-4	-9	-2	4089	357	3949	0.74	-0.01	1.0000 
	-5	-9	2	6990	488	6978	0.14	2.72	1.0000 
	9	-5	-2	7069	563	6989	-0.31	-0.09	1.0000 
	-5	-9	-2	6838	483	6834	0.2	-3.19	1.0000 
	9	-5	2	6866	574	6784	-0.32	0.09	1.0000 
	6	9	-2	4384	403	4166	1.37	-2.01	1.0000 
	9	-6	2	3648	450	3562	0.53	0.43	1.0000 
	9	-6	-2	4179	436	4035	0.83	-0.67	1.0000 
	-6	-9	2	4452	382	4232	1.37	2.01	1.0000 
	-6	-9	-2	4946	405	4773	0.99	-1.37	1.0000 
	-7	-9	-2	144	122	179	0.3	1.91	1.0000 
	9	-7	-2	97	145	116	0.45	0.66	1.0000 
	9	-7	2	157	172	184	0.52	-0.7	1.0000 
	7	9	-2	316	155	362	0.45	1.26	1.0000 
	-7	-9	2	195	146	231	0.45	-1.26	1.0000 
	-8	-9	-2	50	106	144	-1.93	2.91	1.0000 
	8	9	-2	17	103	99	-1.79	3.65	1.0000 
	9	-8	-2	1	120	31	-1.59	3.61	1.0000 
	-8	-9	2	3	107	23	-1.79	-3.65	1.0000 
	9	-8	2	42	138	-155	-1.37	-4.09	1.0000 
	9	-9	-2	3209	438	3256	-0.21	-0.75	1.0000 
	9	-9	2	4147	526	4147	-0.02	-0.29	1.0000 
	-9	-9	-2	3745	360	3709	0.1	1.61	1.0000 
	-9	-9	2	3695	411	3635	0.2	-2.43	1.0000 
	9	9	-2	4838	463	4771	0.2	2.43	1.0000 
	10	9	-2	4543	474	4478	-0.27	-0.66	1.0000 
	-10	-9	2	6295	486	6219	-0.27	0.66	1.0000 
	-10	-9	-2	5271	429	5291	0.12	-0.29	1.0000 
	-10	-8	-2	136	120	184	-1.32	2.7	1.0000 
	-10	-8	2	210	138	278	-1.34	-2.95	1.0000 
	10	8	-2	24	83	-33	-1.34	2.95	1.0000 
	-10	-7	2	3	88	-136	0.59	-1.07	1.0000 
	10	7	2	206	92	173	0.59	-1.17	1.0000 
	-10	-7	-2	457	129	408	0.59	1.17	1.0000 
	10	7	-2	357	143	314	0.59	1.07	1.0000 
	10	6	-2	3932	433	4097	1.14	-3.25	1.0000 
	10	6	2	4367	439	4591	1.37	2.96	1.0000 
	-10	-6	2	4659	388	4840	1.14	3.25	1.0000 
	-10	-6	-2	4431	367	4656	1.37	-2.96	1.0000 
	5	-10	-2	11496	656	11856	-1.05	-0.67	1.0000 
	10	5	2	11867	782	12326	-1.13	2.63	1.0000 
	10	5	-2	10118	759	10503	-1	-2.62	1.0000 
	5	-10	2	10603	617	10916	-0.89	1.27	1.0000 
	-10	-5	-2	12014	636	12476	-1.13	-2.63	1.0000 
	-10	-5	2	12084	665	12506	-1	2.62	1.0000 
	10	4	-2	10030	688	9792	-0.89	1.07	1.0000 
	4	-10	-2	9854	581	9754	-0.52	2	1.0000 
	10	4	2	8406	630	8223	-0.78	-1.27	1.0000 
	-10	-4	2	9520	551	9288	-0.89	-1.07	1.0000 
	-10	-4	-2	10437	539	10233	-0.78	1.27	1.0000 
	4	-10	2	9545	553	9386	-0.68	-1.56	1.0000 
	3	-10	-2	3460	335	3559	-0.52	-0.68	1.0000 
	10	3	-2	3495	400	3676	-1.06	2.87	1.0000 
	3	-10	2	3699	329	3766	-0.35	0.42	1.0000 
	10	3	2	3537	393	3658	-0.72	-2.59	1.0000 
	-10	-3	2	3456	310	3636	-1.06	-2.87	1.0000 
	10	2	2	941	247	1047	-1.2	-0.86	1.0000 
	2	-10	2	1279	242	1421	-1.33	-0.48	1.0000 
	2	-10	-2	978	230	1112	-1.42	0.3	1.0000 
	10	2	-2	910	255	1022	-1.3	1.29	1.0000 
	10	1	-2	6613	539	6600	0.02	-0.73	1.0000 
	10	1	2	6573	536	6556	-0.03	0.36	1.0000 
	1	-10	2	6124	442	6043	-0.43	-0.7	1.0000 
	1	-10	-2	5954	448	5843	-0.52	0.32	1.0000 
	0	-10	-2	7160	487	7113	0.34	-1.12	1.0000 
	10	0	2	6356	525	6290	0.41	0.95	1.0000 
	10	0	-2	6377	535	6288	0.55	-1.24	1.0000 
	0	-10	2	6427	462	6317	0.59	0.95	1.0000 
	-1	-10	-2	5130	428	5133	0.06	-0.47	1.0000 
	-1	-10	2	6476	456	6474	0.04	0.46	1.0000 
	10	-1	-2	5393	502	5315	-0.41	0.49	1.0000 
	10	-1	2	5383	489	5292	-0.48	-0.57	1.0000 
	10	-2	-2	861	254	982	-1.37	0.36	1.0000 
	-2	-10	-2	907	241	1008	-1.16	0.93	1.0000 
	-2	-10	2	1058	248	1171	-1.23	-1.28	1.0000 
	10	-2	2	543	210	636	-1.35	-0.71	1.0000 
	10	-3	2	3739	450	3831	-0.48	0.52	1.0000 
	10	-3	-2	3429	442	3503	-0.39	-0.48	1.0000 
	-3	-10	-2	3591	392	3752	-0.94	2.45	1.0000 
	-3	-10	2	3578	392	3715	-0.8	-2.87	1.0000 
	-4	-10	-2	9805	615	9619	-0.74	1.26	1.0000 
	-4	-10	2	10340	633	10110	-0.84	-0.97	1.0000 
	10	-4	2	10384	738	10241	-0.63	-1.76	1.0000 
	10	-4	-2	10203	716	10059	-0.64	1.79	1.0000 
	10	-5	-2	12622	835	13000	-1.03	-0.92	1.0000 
	-5	-10	-2	11947	717	12401	-1.15	-2.22	1.0000 
	10	-5	2	11795	832	12108	-0.86	1.01	1.0000 
	-5	-10	2	11282	697	11671	-0.9	3.02	1.0000 
	10	-6	2	4459	495	4655	1.28	4.75	1.0000 
	-6	-10	-2	4293	402	4484	1.22	-3.06	1.0000 
	10	-6	-2	4426	479	4630	1.31	-4.28	1.0000 
	-6	-10	2	3927	387	4105	1.2	3.13	1.0000 
	10	-7	-2	3	133	-48	0.58	0.96	1.0000 
	-7	-10	-2	312	130	267	0.77	0.6	1.0000 
	10	-7	2	155	177	124	0.68	-1.09	1.0000 
	-7	-10	2	348	147	320	0.29	-1.54	1.0000 
	-8	-10	-2	228	153	295	-1.4	2.35	1.0000 
	-8	-10	2	118	119	163	-1.28	-3.09	1.0000 
	10	-8	2	37	167	52	-1.25	-2.93	1.0000 
	10	-8	-2	117	177	166	-1.47	2.53	1.0000 
	10	-9	-2	4154	507	4022	-0.49	-3.53	1.0000 
	-9	-10	2	5305	447	5214	-0.34	1.08	1.0000 
	10	-9	2	5218	590	5098	-0.37	3.74	1.0000 
	-9	-10	-2	5389	451	5412	0.14	-0.44	1.0000 
	-10	-10	2	6525	530	6633	-0.14	2.53	1.0000 
	-10	-10	-2	7180	532	7290	-0.14	-2.46	1.0000 
	10	-10	2	6645	647	6747	-0.12	2.51	1.0000 
	-11	-10	2	3518	439	3505	-0.13	-0.45	1.0000 
	10	-11	2	4098	555	4093	-0.37	-2.37	1.0000 
	-11	-10	-2	4167	388	4047	-0.56	-0.64	1.0000 
	11	9	-2	2528	399	2708	-0.68	-3.16	1.0000 
	-11	-9	-2	2030	331	2143	-0.42	-2.76	1.0000 
	-11	-9	2	2347	347	2520	-0.68	3.16	1.0000 
	11	8	-2	11	60	-80	-0.04	-2.21	1.0000 
	-11	-8	-2	165	78	157	0.19	-1.57	1.0000 
	-11	-8	2	21	75	17	-0.04	2.21	1.0000 
	11	7	2	818	208	801	-0.21	-0.09	1.0000 
	-11	-7	2	253	119	244	-0.13	0.72	1.0000 
	11	7	-2	311	124	301	-0.13	-0.72	1.0000 
	6	-11	-2	2984	347	3101	-0.64	-0.62	1.0000 
	11	6	2	3003	420	3084	-0.63	-1.5	1.0000 
	-11	-6	2	3672	343	3746	-0.41	0.03	1.0000 
	11	6	-2	3590	458	3663	-0.41	-0.03	1.0000 
	5	-11	-2	5813	425	5629	-0.75	-0.62	1.0000 
	5	-11	2	5449	411	5292	-0.58	1.55	1.0000 
	11	5	2	5503	508	5388	-0.71	-1.58	1.0000 
	-11	-5	2	6186	443	5982	-1	-1.09	1.0000 
	11	5	-2	5483	524	5291	-1	1.09	1.0000 
	4	-11	-2	3584	338	3583	0	0.05	1.0000 
	11	4	-2	3213	426	3193	0.18	-0.54	1.0000 
	4	-11	2	3211	352	3195	0.11	0.14	1.0000 
	-11	-4	2	3757	330	3735	0.18	0.54	1.0000 
	11	4	2	3714	442	3704	0.25	1.65	1.0000 
	11	3	-2	148	136	194	1.09	0.6	1.0000 
	3	-11	-2	227	132	273	0.59	1.64	1.0000 
	-11	-3	2	327	106	394	1.09	-0.6	1.0000 
	11	3	2	139	121	170	0.85	0.1	1.0000 
	3	-11	2	328	154	408	0.93	-1.9	1.0000 
	11	2	-2	4198	478	4161	-0.17	-0.47	1.0000 
	2	-11	-2	3701	386	3715	0.08	-0.2	1.0000 
	11	2	2	3654	438	3640	-0.07	0.02	1.0000 
	2	-11	2	3693	385	3699	0.04	0.16	1.0000 
	11	1	2	7452	629	7650	-0.68	0.96	1.0000 
	11	1	-2	10369	724	10620	-0.72	-1.18	1.0000 
	1	-11	-2	8318	569	8521	-0.61	-1.54	1.0000 
	1	-11	2	8081	552	8285	-0.65	1.25	1.0000 
	11	0	2	9172	676	8959	-0.84	-0.92	1.0000 
	0	-11	2	9583	590	9326	-0.99	-1.03	1.0000 
	0	-11	-2	9304	589	9100	-0.8	0.93	1.0000 
	11	0	-2	8564	657	8367	-0.8	0.88	1.0000 
	-1	-11	2	8416	576	8677	-0.85	1.11	1.0000 
	-1	-11	-2	9580	615	9800	-0.67	-0.93	1.0000 
	11	-1	-2	7020	635	7215	-0.67	-1.27	1.0000 
	11	-1	2	8680	673	8891	-0.63	1.41	1.0000 
	-2	-11	-2	2969	378	2949	-0.11	-0.19	1.0000 
	11	-2	2	3485	447	3478	-0.03	0.19	1.0000 
	-2	-11	2	3140	388	3135	-0.02	0.36	1.0000 
	11	-2	-2	3947	475	3961	0.07	0.04	1.0000 
	11	-3	-2	143	191	182	0.68	1.55	1.0000 
	-3	-11	2	151	170	193	1.03	-0.37	1.0000 
	11	-3	2	5	129	4	0.91	-1.91	1.0000 
	-3	-11	-2	216	141	262	0.98	0.12	1.0000 
	-4	-11	-2	3655	411	3662	0.07	-0.97	1.0000 
	11	-4	2	2549	409	2523	0.18	0.08	1.0000 
	-4	-11	2	4157	438	4145	0.22	1.37	1.0000 
	11	-4	-2	2932	433	2939	0.01	-0.51	1.0000 
	11	-5	2	5449	547	5248	-0.79	1.45	1.0000 
	-5	-11	-2	6595	501	6393	-1.05	1.75	1.0000 
	-5	-11	2	5339	451	5195	-0.75	-0.74	1.0000 
	11	-5	-2	5621	541	5484	-0.5	-1.21	1.0000 
	-6	-11	2	2679	378	2761	-0.64	-1.15	1.0000 
	11	-6	-2	3149	448	3235	-0.53	0.18	1.0000 
	11	-6	2	2774	452	2855	-0.4	0.96	1.0000 
	-6	-11	-2	3282	407	3334	-0.39	0.92	1.0000 
	-7	-11	-2	509	156	501	-0.07	-0.59	1.0000 
	-7	-11	2	779	199	757	-0.26	0.11	1.0000 
	11	-7	-2	575	222	558	-0.22	-0.26	1.0000 
	11	-7	2	676	261	661	-0.12	0.95	1.0000 
	11	-8	-2	93	160	101	0.28	-2.94	1.0000 
	-8	-11	-2	8	81	-48	-0.02	-1.93	1.0000 
	-8	-11	2	145	123	153	0.2	2.57	1.0000 
	11	-8	2	21	138	-65	0.04	3.09	1.0000 
	11	-9	2	2512	438	2589	-0.32	1.43	1.0000 
	-9	-11	2	2102	348	2258	-0.61	3.32	1.0000 
	-9	-11	-2	2403	360	2539	-0.52	-2.66	1.0000 
	11	-9	-2	2123	409	2168	-0.2	-1.02	1.0000 
	-10	-11	-2	3281	400	3183	-0.51	-0.65	1.0000 
	11	-10	2	2337	430	2326	-0.38	-2.24	1.0000 
	-12	-9	2	831	207	882	0.55	2.78	1.0000 
	-12	-8	2	43	100	158	-0.5	4.87	1.0000 
	12	8	-2	26	81	119	-0.5	-4.87	1.0000 
	12	7	2	27	76	78	-2.35	0.56	1.0000 
	-12	-7	2	68	93	146	-2.17	1.38	1.0000 
	12	7	-2	0	115	13	-2.17	-1.38	1.0000 
	-12	-6	2	141	90	121	-2.14	-2.8	1.0000 
	12	6	-2	335	135	320	-2.14	2.8	1.0000 
	6	-12	-2	240	103	278	-2.39	4.33	1.0000 
	12	6	2	37	72	3	-2.11	-3.62	1.0000 
	5	-12	-2	321	130	343	-0.58	1.38	1.0000 
	12	5	-2	286	165	315	-0.8	2.7	1.0000 
	12	5	2	233	132	242	-0.49	-3.33	1.0000 
	4	-12	-2	432	173	497	1.14	-3.68	1.0000 
	12	4	-2	914	289	1045	1.48	-1.79	1.0000 
	12	4	2	562	219	651	1.32	2.48	1.0000 
	4	-12	2	516	173	597	1.26	3.25	1.0000 
	3	-12	-2	55	118	144	2.51	-1.79	1.0000 
	3	-12	2	51	123	148	2.74	1.97	1.0000 
	12	3	2	25	129	126	2.94	2.93	1.0000 
	12	3	-2	95	128	245	2.96	-2.63	1.0000 
	12	2	-2	800	232	694	1.35	-1.06	1.0000 
	12	2	2	1267	264	1138	1.25	0.25	1.0000 
	2	-12	2	1418	254	1246	1.57	-0.06	1.0000 
	2	-12	-2	1814	290	1644	1.35	0.4	1.0000 
	12	1	-2	1384	323	1345	-0.36	0.06	1.0000 
	1	-12	2	1280	264	1217	-0.72	-1.13	1.0000 
	12	1	2	1202	288	1159	-0.42	-0.02	1.0000 
	1	-12	-2	1369	272	1308	-0.66	0.94	1.0000 
	0	-12	2	1179	269	1261	-0.91	-2.04	1.0000 
	12	0	-2	1222	305	1295	-0.8	1.93	1.0000 
	0	-12	-2	968	248	1016	-0.63	1.81	1.0000 
	12	0	2	1101	297	1166	-0.77	-1.92	1.0000 
	-1	-12	2	914	236	885	-0.31	0.05	1.0000 
	12	-1	-2	1102	298	1032	-0.81	0.96	1.0000 
	-1	-12	-2	1397	288	1349	-0.44	0.12	1.0000 
	12	-1	2	1262	304	1207	-0.67	-1.29	1.0000 
	12	-2	-2	1230	298	1089	1.38	0.25	1.0000 
	-2	-12	2	994	228	869	1.41	0.89	1.0000 
	-2	-12	-2	1091	253	969	1.29	-0.57	1.0000 
	12	-2	2	1281	292	1123	1.52	-0.09	1.0000 
	12	-3	-2	8	160	60	2.54	-2.05	1.0000 
	-3	-12	-2	36	100	-147	2.95	-2.67	1.0000 
	12	-3	2	7	163	57	2.75	1.76	1.0000 
	-3	-12	2	18	128	106	2.91	2.83	1.0000 
	12	-4	-2	560	250	628	1.02	-3.48	1.0000 
	-4	-12	-2	473	172	545	1.19	-1.91	1.0000 
	12	-4	2	615	258	708	1.27	3.5	1.0000 
	-4	-12	2	579	227	682	1.48	2.13	1.0000 
	12	-5	-2	290	194	302	-0.42	1.52	1.0000 
	-5	-12	2	586	191	620	-0.6	-2.85	1.0000 
	-5	-12	-2	468	187	502	-0.68	2.96	1.0000 
	12	-5	2	488	226	533	-0.8	-1.04	1.0000 
	12	-6	2	109	137	114	-2.4	-4.35	1.0000 
	-6	-12	-2	373	162	364	-2.12	2.88	1.0000 
	12	-6	-2	138	165	155	-2.33	4.41	1.0000 
	-6	-12	2	144	135	136	-2.15	-3.29	1.0000 
	-7	-12	-2	29	101	80	-2.15	-1.01	1.0000 
	-7	-12	2	2	109	5	-2.3	0.99	1.0000 
	12	-7	-2	79	123	143	-1.73	-1.15	1.0000 
	12	-7	2	65	154	134	-1.82	1.56	1.0000 
	-8	-12	2	109	146	282	-0.58	4.92	1.0000 
	12	-8	-2	26	118	110	0.76	-4.22	1.0000 
	-8	-12	-2	110	136	245	-0.07	-4.1	1.0000 
	12	-8	2	24	161	120	0.18	4.96	1.0000 
	12	-9	-2	383	207	432	0.8	0.16	1.0000 
	13	7	-2	201	146	233	-0.55	-0.86	1.0000 
	13	7	2	113	109	145	-0.75	1.04	1.0000 
	13	6	-2	132	138	143	0.3	0.13	1.0000 
	13	6	2	414	146	437	0.39	0.34	1.0000 
	5	-13	-2	314	157	346	-0.63	1.9	1.0000 
	13	5	2	151	135	163	-0.39	-1.05	1.0000 
	13	5	-2	218	110	226	-0.24	0.73	1.0000 
	13	4	-2	8	101	-22	-0.87	-1.73	1.0000 
	13	4	2	30	105	47	-1.01	0.86	1.0000 
	4	-13	2	236	124	289	-1.16	0.75	1.0000 
	4	-13	-2	1	103	1	-1.09	-0.53	1.0000 
	3	-13	2	49	114	122	0.94	2.58	1.0000 
	13	3	2	130	122	235	1.82	2	1.0000 
	13	3	-2	23	121	72	1.12	-2.33	1.0000 
	3	-13	-2	168	126	301	1.5	-2.6	1.0000 
	13	2	-2	15	103	37	1.5	0.94	1.0000 
	13	2	2	151	127	218	1.65	-0.6	1.0000 
	2	-13	2	24	108	59	1.88	-0.69	1.0000 
	2	-13	-2	79	129	143	2.05	0.05	1.0000 
	13	1	2	607	203	604	-0.16	-1.02	1.0000 
	1	-13	2	645	190	678	0.23	-1.48	1.0000 
	13	1	-2	262	148	264	-0.11	1.4	1.0000 
	1	-13	-2	276	153	288	0.1	1.22	1.0000 
	13	0	-2	220	135	233	-0.33	0.53	1.0000 
	0	-13	2	337	162	344	-0.16	-0.35	1.0000 
	0	-13	-2	285	171	296	-0.27	0.8	1.0000 
	13	0	2	285	169	295	-0.25	-0.71	1.0000 
	13	-1	2	407	162	428	0.1	-1.74	1.0000 
	-1	-13	2	463	183	476	0.03	-1.35	1.0000 
	13	-1	-2	85	152	91	0.13	0.97	1.0000 
	-1	-13	-2	342	173	339	-0.19	1.2	1.0000 
	-2	-13	-2	47	129	86	1.65	0.39	1.0000 
	-2	-13	2	44	121	81	1.51	-1.13	1.0000 
	13	-2	-2	27	126	66	1.96	0.07	1.0000 
	13	-2	2	103	124	172	1.98	-0.61	1.0000 
	13	-3	2	19	103	-175	0.98	2.71	1.0000 
	-3	-13	2	211	171	333	1.15	2.29	1.0000 
	-3	-13	-2	186	159	312	1.64	-2.21	1.0000 
	13	-3	-2	19	138	-75	1.37	-2.57	1.0000 
	-4	-13	-2	29	118	44	-0.97	-0.98	1.0000 
	13	-4	-2	4	95	-77	-1.19	-0.41	1.0000 
	13	-4	2	145	171	188	-1.14	1.1	1.0000 
	-4	-13	2	16	121	27	-1	1.41	1.0000 
	-5	-13	-2	502	168	522	-0.34	0.83	1.0000 
	13	-5	2	239	172	252	-0.33	-1.68	1.0000 
	-5	-13	2	168	139	172	-0.18	-0.93	1.0000 
	13	-5	-2	440	220	483	-0.67	2.08	1.0000 
	-6	-13	-2	517	185	536	0.29	-0.39	1.0000 
	13	-6	-2	448	211	456	0.16	-1.02	1.0000 
	-6	-13	2	701	208	729	0.36	0.07	1.0000 
	13	-6	2	436	204	442	0.12	0.44	1.0000 
	13	-7	-2	210	176	246	-0.17	-1.81	1.0000 
	5	-14	-2	2474	354	2448	-0.1	-0.72	1.0000 
	14	5	2	2349	405	2341	0.05	1.07	1.0000 
	4	-14	-2	729	184	773	-0.57	0.22	1.0000 
	14	4	-2	406	205	458	-0.7	-0.86	1.0000 
	14	4	2	612	209	671	-0.76	0.18	1.0000 
	3	-14	-2	1073	241	1089	0.09	0.66	1.0000 
	14	3	2	344	174	362	0.25	-0.74	1.0000 
	14	3	-2	174	159	179	0.07	0.62	1.0000 
	3	-14	2	173	131	173	-0.08	-1	1.0000 
	14	2	2	251	155	303	0.88	-0.55	1.0000 
	2	-14	-2	3	104	-69	1.01	0.46	1.0000 
	2	-14	2	160	114	218	0.59	-1.35	1.0000 
	14	2	-2	61	107	101	0.66	1.44	1.0000 
	1	-14	2	2660	373	2656	0.13	0.89	1.0000 
	1	-14	-2	2029	342	2024	0.15	-0.94	1.0000 
	14	1	2	1686	384	1727	-0.3	0.35	1.0000 
	14	1	-2	2333	433	2384	-0.37	0.2	1.0000 
	14	0	-2	3068	478	2943	-0.62	-1.54	1.0000 
	14	0	2	2225	398	2123	-0.59	1.54	1.0000 
	0	-14	-2	2879	399	2736	-0.8	-1.07	1.0000 
	0	-14	2	3165	407	3068	-0.41	2.06	1.0000 
	-1	-14	-2	1835	339	1894	-0.46	0.04	1.0000 
	-1	-14	2	2258	389	2297	-0.26	0.16	1.0000 
	14	-1	2	2135	422	2140	0.06	0.82	1.0000 
	14	-1	-2	2030	418	2019	0.23	-1.2	1.0000 
	14	-2	-2	26	101	45	0.89	0.64	1.0000 
	14	-2	2	81	110	122	0.75	-1.17	1.0000 
	-2	-14	2	6	115	-103	0.69	-1.47	1.0000 
	-2	-14	-2	199	131	250	0.81	0.79	1.0000 
	14	-3	-2	586	232	595	0.03	0.81	1.0000 
	-3	-14	-2	361	168	382	0.29	0.73	1.0000 
	-3	-14	2	780	225	788	0.01	-0.75	1.0000 
	14	-3	2	377	204	377	-0.08	-0.79	1.0000 
	1	-1	-3	36925	60	542	-112.64	-2.97	1.0000 
	-1	-1	-3	36371	71	543	112.01	2.81	1.0000 
	1	1	3	34886	47	372	112.01	-2.81	1.0000 
	-1	-1	3	36089	65	477	112.14	3.36	1.0000 
	1	1	-3	37057	75	594	112.14	-3.36	1.0000 
	1	-1	-3	36792	75	526	-112.64	-2.97	1.0000 
	1	-1	3	36094	39	446	-112.95	-2.82	1.0000 
	2	1	3	29052	1925	51661	37.94	-0.51	1.0000 
	1	-2	-3	30195	1896	53619	-38.43	3.42	1.0000 
	-2	-1	3	29687	1730	52399	37.79	-0.06	1.0000 
	1	-2	3	31016	1700	54671	-38.41	-2.69	1.0000 
	-2	-1	-3	33604	1902	57677	37.94	0.51	1.0000 
	2	1	-3	29685	1953	52397	37.79	0.06	1.0000 
	-1	-2	-3	33420	1967	57411	37.91	0.25	1.0000 
	2	-1	-3	32334	2015	56437	-38.38	3.7	1.0000 
	-1	-2	3	30876	1793	53923	37.71	-0.25	1.0000 
	-2	-2	-3	3771	68	322	29.44	-0.16	1.0000 
	2	-2	-3	3634	64	269	-28.82	5.35	1.0000 
	-2	-2	3	3597	79	280	29.26	0.12	1.0000 
	2	2	-3	3730	83	319	29.26	-0.12	1.0000 
	2	-2	3	3727	51	301	-28.73	-5.12	1.0000 
	2	2	3	4039	68	406	29.44	0.16	1.0000 
	2	-3	3	58599	2028	64312	-7.72	-0.53	1.0000 
	-3	-2	3	56048	2076	63346	9.9	1.65	1.0000 
	3	2	-3	57535	2351	64927	9.9	-1.65	1.0000 
	-3	-2	-3	55441	2039	62500	9.61	-2.06	1.0000 
	3	2	3	56087	2311	63185	9.61	2.06	1.0000 
	-3	-1	-3	51313	2330	72482	-28.38	-3.48	1.0000 
	3	1	-3	51021	2688	71857	-28.21	4.49	1.0000 
	1	-3	3	52852	2352	74775	28.89	4.79	1.0000 
	3	1	3	53123	2669	74631	-28.38	3.48	1.0000 
	1	-3	-3	55038	2604	76867	28.52	4.53	1.0000 
	-3	-1	3	52890	2377	74073	-28.21	-4.49	1.0000 
	-1	-3	-3	55150	2374	76777	-28.05	-4.14	1.0000 
	3	-1	-3	50525	2658	71617	28.64	3.59	1.0000 
	-1	-3	3	55007	2367	76719	-28.38	-4.92	1.0000 
	1	3	3	48975	2596	69457	-28.05	4.14	1.0000 
	-1	-3	-3	52266	2573	73367	-28.05	-4.14	1.0000 
	-2	-3	3	54585	2098	61511	9.51	1.81	1.0000 
	-2	-3	-3	57102	2099	64488	9.92	-1.84	1.0000 
	-2	-3	-3	53853	2276	61032	9.92	-1.84	1.0000 
	2	3	-3	57035	2378	64110	9.51	-1.81	1.0000 
	2	3	3	60878	2318	68497	9.92	1.84	1.0000 
	3	-2	-3	62156	2365	68183	-7.9	0.36	1.0000 
	3	3	3	58985	1466	38913	30.3	-4.6	1.0000 
	-3	-3	-3	61270	1448	40774	30.3	4.6	1.0000 
	-3	-3	-3	58978	1320	38908	30.3	4.6	1.0000 
	3	3	-3	58999	1519	39272	30.36	-6.5	1.0000 
	-3	-3	3	56337	1336	37102	30.36	6.5	1.0000 
	3	-3	-3	57805	1477	38720	-29.4	-3.67	1.0000 
	4	3	3	15289	832	18773	8.75	-2.73	1.0000 
	-4	-3	-3	16676	745	20308	8.75	2.73	1.0000 
	4	3	-3	16540	878	20141	8.9	-0.16	1.0000 
	-4	-3	3	15847	768	19376	8.9	0.16	1.0000 
	-4	-2	-3	15748	654	18352	-6.47	-3	1.0000 
	2	-4	3	15131	658	17799	6.85	1.7	1.0000 
	4	2	3	13826	757	16271	-6.47	3	1.0000 
	4	2	-3	15581	796	17953	-6.03	-1.6	1.0000 
	-4	-2	3	15939	695	18337	-6.03	1.6	1.0000 
	1	-4	3	8822	250	4575	17.6	0.44	1.0000 
	-4	-1	3	8390	261	4456	-16.64	0.5	1.0000 
	4	1	-3	9710	330	5432	-16.64	-0.5	1.0000 
	1	-4	-3	9709	289	5226	17.52	0.21	1.0000 
	4	1	3	8929	300	4866	-17.14	4.6	1.0000 
	-4	-1	-3	8873	227	4824	-17.14	-4.6	1.0000 
	-1	-4	-3	9438	285	5234	-16.89	-2.84	1.0000 
	-1	-4	-3	8663	274	4659	-16.89	-2.84	1.0000 
	4	-1	-3	9086	307	4764	17.54	0.65	1.0000 
	-1	-4	3	8835	273	4771	-16.88	2.3	1.0000 
	4	-2	-3	15480	788	18176	6.89	-1.11	1.0000 
	-2	-4	-3	15228	706	17668	-6.2	-2.46	1.0000 
	2	4	-3	16146	807	18694	-6.32	-2.2	1.0000 
	-2	-4	-3	15844	733	18331	-6.2	-2.46	1.0000 
	-2	-4	3	15241	707	17719	-6.32	2.2	1.0000 
	-3	-4	3	15837	761	19345	8.85	0.13	1.0000 
	4	-3	-3	16282	844	20223	-9.82	-1.52	1.0000 
	3	4	3	15598	798	19173	8.92	-2.39	1.0000 
	3	4	-3	15460	854	18929	8.85	-0.13	1.0000 
	-3	-4	-3	16227	753	19869	8.92	2.39	1.0000 
	-3	-4	-3	15166	784	18693	8.92	2.39	1.0000 
	-4	-4	3	12421	414	7764	15.55	-0.9	1.0000 
	-4	-4	-3	13657	408	8718	15.63	3.01	1.0000 
	4	-4	-3	12790	442	8034	-15.84	-2.28	1.0000 
	4	4	-3	12129	460	7534	15.55	0.9	1.0000 
	4	4	3	12366	422	7692	15.63	-3.01	1.0000 
	5	4	3	1233	223	2251	8.22	-0.22	1.0000 
	-5	-4	3	1054	226	2048	8.54	0.15	1.0000 
	5	4	-3	1244	264	2310	8.54	-0.15	1.0000 
	-5	-4	-3	1321	209	2369	8.22	0.22	1.0000 
	5	3	-3	215	86	124	-3.52	2.42	1.0000 
	5	3	3	188	91	174	-3.86	4.12	1.0000 
	-5	-3	3	178	84	94	-3.52	-2.42	1.0000 
	3	-5	3	110	64	72	4	4.11	1.0000 
	-5	-3	-3	216	82	208	-3.86	-4.12	1.0000 
	5	2	3	744	114	329	-6.41	2.51	1.0000 
	-5	-2	3	755	103	337	-6.16	1.4	1.0000 
	-5	-2	-3	663	79	275	-6.41	-2.51	1.0000 
	2	-5	-3	591	92	249	5.73	0.49	1.0000 
	2	-5	3	693	90	320	5.65	-0.36	1.0000 
	5	2	-3	783	119	356	-6.16	-1.4	1.0000 
	5	1	-3	261	99	154	3.42	-3.67	1.0000 
	1	-5	-3	494	90	331	-2.92	1.8	1.0000 
	5	1	3	284	86	154	3.12	1.4	1.0000 
	1	-5	3	374	89	256	-2.87	-3.11	1.0000 
	-5	-1	-3	314	62	177	3.12	-1.4	1.0000 
	-5	-1	3	356	89	236	3.42	3.67	1.0000 
	-1	-5	3	216	84	117	3.2	3.27	1.0000 
	-1	-5	-3	406	84	246	3.21	-1.58	1.0000 
	5	-1	-3	271	89	151	-2.92	1.58	1.0000 
	-1	-5	-3	300	89	164	3.21	-1.58	1.0000 
	5	-1	3	236	97	129	-3.07	-2.79	1.0000 
	-2	-5	3	611	106	256	-5.97	1.94	1.0000 
	-2	-5	-3	765	109	341	-6.38	-2.22	1.0000 
	-2	-5	-3	865	92	410	-6.38	-2.22	1.0000 
	5	-2	-3	770	114	380	5.55	0.65	1.0000 
	3	5	-3	328	104	172	-3.34	0.35	1.0000 
	5	-3	-3	377	94	203	3.49	-0.22	1.0000 
	-3	-5	-3	129	68	69	-3.71	-2.85	1.0000 
	-3	-5	3	158	80	57	-3.34	-0.35	1.0000 
	3	5	3	96	53	39	-3.71	2.85	1.0000 
	-3	-5	-3	155	84	94	-3.71	-2.85	1.0000 
	-4	-5	3	869	213	1761	8.32	0.74	1.0000 
	4	5	-3	1164	234	2172	8.32	-0.74	1.0000 
	5	-4	-3	1050	228	1965	-7.86	-2.3	1.0000 
	-4	-5	-3	1186	212	2220	8.46	0.45	1.0000 
	4	5	3	1149	198	2170	8.46	-0.45	1.0000 
	5	-5	-3	203	88	76	-3.76	-0.8	1.0000 
	5	5	-3	467	125	300	3.02	-1.1	1.0000 
	-5	-5	3	606	141	414	3.02	1.1	1.0000 
	-5	-5	-3	375	116	291	3.41	3.85	1.0000 
	5	5	3	328	88	246	3.41	-3.85	1.0000 
	-6	-5	3	165	125	201	-0.86	-0.44	1.0000 
	-6	-5	-3	39	95	68	-0.36	2.14	1.0000 
	6	5	-3	116	108	146	-0.86	0.44	1.0000 
	6	5	3	78	85	119	-0.36	-2.14	1.0000 
	-6	-4	3	542	132	400	-2.17	0.25	1.0000 
	6	4	3	558	126	407	-2.29	0.32	1.0000 
	6	4	-3	632	153	478	-2.17	-0.25	1.0000 
	4	-6	3	771	122	595	2.21	0.59	1.0000 
	-6	-4	-3	806	136	622	-2.29	-0.32	1.0000 
	6	3	3	5242	395	5959	-3.06	1.91	1.0000 
	-6	-3	3	4760	346	5354	-2.83	-0.63	1.0000 
	3	-6	3	4837	320	5635	3.55	1.81	1.0000 
	-6	-3	-3	4725	313	5407	-3.06	-1.91	1.0000 
	6	3	-3	4981	411	5588	-2.83	0.63	1.0000 
	-6	-2	3	1591	177	1363	-2	-0.11	1.0000 
	-6	-2	-3	1831	156	1555	-2.21	-0.4	1.0000 
	6	2	-3	1566	210	1340	-2	0.11	1.0000 
	6	2	3	1697	211	1432	-2.21	0.4	1.0000 
	2	-6	3	2182	191	1926	2.02	-1.07	1.0000 
	2	-6	-3	1967	191	1704	2.11	0.45	1.0000 
	-6	-1	-3	483	78	356	2.01	0.65	1.0000 
	-6	-1	3	471	109	335	2.29	0	1.0000 
	6	1	-3	173	95	95	2.29	0	1.0000 
	1	-6	3	341	105	230	-2.16	-0.4	1.0000 
	1	-6	-3	438	106	315	-2.18	-0.17	1.0000 
	6	1	3	304	101	205	2.01	-0.65	1.0000 
	6	-1	-3	149	91	79	-2.18	0.35	1.0000 
	-1	-6	-3	365	92	253	2.06	0.71	1.0000 
	-1	-6	-3	333	103	227	2.06	0.71	1.0000 
	-1	-6	3	248	106	157	2.15	-0.06	1.0000 
	6	-1	3	263	107	165	-2.27	0	1.0000 
	-2	-6	-3	1673	193	1418	-2.18	0.02	1.0000 
	-2	-6	-3	2104	170	1817	-2.18	0.02	1.0000 
	-2	-6	3	2148	217	1902	-1.8	0.34	1.0000 
	6	-2	3	1399	208	1183	2.09	-0.72	1.0000 
	6	-2	-3	1426	196	1219	2.01	1	1.0000 
	3	6	3	4965	344	5622	-2.9	1.62	1.0000 
	-3	-6	-3	5184	369	5855	-2.9	-1.62	1.0000 
	-3	-6	-3	5094	340	5759	-2.9	-1.62	1.0000 
	6	-3	-3	4613	395	5340	3.46	0.17	1.0000 
	-3	-6	3	5246	370	5867	-2.79	-0.02	1.0000 
	-4	-6	-3	851	158	672	-2.13	-0.5	1.0000 
	6	-4	-3	677	148	502	2.37	-0.47	1.0000 
	4	6	-3	672	153	495	-2.44	-0.25	1.0000 
	-4	-6	3	829	160	631	-2.44	0.25	1.0000 
	4	6	3	615	121	464	-2.13	0.5	1.0000 
	-5	-6	-3	89	115	132	-0.54	1.96	1.0000 
	-5	-6	3	233	131	270	-0.74	-0.45	1.0000 
	5	6	-3	1	90	3	-0.74	0.45	1.0000 
	5	6	3	153	94	210	-0.54	-1.96	1.0000 
	6	-5	-3	64	105	82	0.71	-0.06	1.0000 
	-6	-6	-3	1500	191	964	5.05	1.77	1.0000 
	-6	-6	3	1446	198	916	5.18	-0.29	1.0000 
	6	6	3	1219	159	741	5.05	-1.77	1.0000 
	6	6	-3	1575	220	1019	5.18	0.29	1.0000 
	6	-6	-3	1179	194	822	-3.86	-0.44	1.0000 
	6	-7	-3	3416	365	3670	-1.39	-0.52	1.0000 
	-7	-6	3	2702	307	3108	2.48	0.5	1.0000 
	7	6	3	3522	345	3925	2.26	-0.76	1.0000 
	7	6	-3	3895	393	4379	2.48	-0.5	1.0000 
	-7	-6	-3	3037	294	3412	2.26	0.76	1.0000 
	-7	-5	3	9	105	41	2.03	-1.3	1.0000 
	7	5	3	16	78	52	2.16	0	1.0000 
	-7	-5	-3	11	89	-22	2.16	0	1.0000 
	7	5	-3	24	107	69	2.03	1.3	1.0000 
	5	-7	3	56	85	90	-1.11	-1.01	1.0000 
	-7	-4	-3	5320	362	6119	-3.43	-1.45	1.0000 
	4	-7	3	5267	361	6192	4.1	-0.27	1.0000 
	7	4	-3	4898	455	5743	-3.79	-1.2	1.0000 
	7	4	3	4922	425	5691	-3.43	1.45	1.0000 
	-7	-4	3	4889	388	5733	-3.79	1.2	1.0000 
	-7	-3	3	21486	877	21074	-0.87	1.44	1.0000 
	7	3	3	20679	992	20457	-0.56	-0.8	1.0000 
	7	3	-3	22951	1049	22525	-0.87	-1.44	1.0000 
	-7	-3	-3	21523	834	21296	-0.56	0.8	1.0000 
	3	-7	-3	20827	927	20509	0.8	0.93	1.0000 
	3	-7	3	21434	854	21006	1	-0.23	1.0000 
	-7	-2	-3	23220	855	23144	0.15	0.38	1.0000 
	-7	-2	3	22031	900	21926	0.19	-0.87	1.0000 
	7	2	3	24272	1076	24195	0.15	-0.38	1.0000 
	2	-7	3	22616	904	22345	-0.6	0.01	1.0000 
	7	2	-3	21571	1061	21467	0.19	0.87	1.0000 
	2	-7	-3	22938	962	22753	-0.44	-0.57	1.0000 
	7	1	-3	6363	441	5794	-2.48	0.59	1.0000 
	-7	-1	3	6747	361	6161	-2.48	-0.59	1.0000 
	1	-7	3	7259	392	6655	2.42	0.1	1.0000 
	-7	-1	-3	7199	322	6498	-2.8	-0.55	1.0000 
	7	1	3	7621	464	6900	-2.8	0.55	1.0000 
	1	-7	-3	7328	389	6656	2.61	-1.34	1.0000 
	1	-7	-3	6290	386	5668	2.61	-1.34	1.0000 
	1	-7	3	7476	315	6863	2.42	0.1	1.0000 
	7	-1	3	7896	479	7225	2.54	0.7	1.0000 
	7	-1	-3	7068	456	6427	2.6	-0.1	1.0000 
	-1	-7	-3	6859	406	6222	-2.67	0.49	1.0000 
	-1	-7	-3	7193	378	6540	-2.67	0.49	1.0000 
	-1	-7	3	7113	398	6462	-2.62	0.32	1.0000 
	-2	-7	-3	24618	953	24541	0.13	0.77	1.0000 
	7	-2	3	22726	1081	22514	-0.49	0.29	1.0000 
	-2	-7	3	21313	943	21228	0.17	-0.47	1.0000 
	7	-2	-3	23919	1088	23652	-0.6	-0.31	1.0000 
	-2	-7	-3	23649	962	23573	0.13	0.77	1.0000 
	7	-3	-3	21335	1025	20975	0.8	-0.53	1.0000 
	7	-3	3	22056	1054	21706	0.86	-1.14	1.0000 
	-3	-7	3	22378	925	21991	-0.86	0.16	1.0000 
	-3	-7	-3	21873	904	21568	-0.68	-0.28	1.0000 
	-3	-7	-3	22424	924	22115	-0.68	-0.28	1.0000 
	-4	-7	-3	5100	404	5901	-3.48	-1.75	1.0000 
	4	7	3	4971	380	5763	-3.48	1.75	1.0000 
	-4	-7	-3	5432	373	6258	-3.48	-1.75	1.0000 
	7	-4	-3	5360	465	6308	4.2	0.84	1.0000 
	4	7	-3	4888	431	5705	-3.7	-0.86	1.0000 
	-4	-7	3	4333	378	5104	-3.7	0.86	1.0000 
	7	-5	-3	61	114	94	-1.21	0.43	1.0000 
	-5	-7	-3	79	117	150	2.14	0.74	1.0000 
	-5	-7	3	0	106	11	2.13	-0.32	1.0000 
	5	7	-3	4	97	27	2.13	0.32	1.0000 
	5	7	3	105	85	185	2.14	-0.74	1.0000 
	7	-6	-3	3288	363	3554	-1.49	-0.41	1.0000 
	-6	-7	3	3391	339	3838	2.43	0.68	1.0000 
	6	7	-3	2985	350	3405	2.43	-0.68	1.0000 
	6	7	3	3470	326	3864	2.23	-0.88	1.0000 
	-6	-7	-3	3277	318	3660	2.23	0.88	1.0000 
	7	-7	-3	5935	484	5950	-0.07	1.21	1.0000 
	7	7	-3	5651	477	5816	-0.83	-1.08	1.0000 
	-7	-7	3	5218	414	5377	-0.83	1.08	1.0000 
	-7	-7	-3	5195	398	5350	-0.87	-1.93	1.0000 
	7	7	3	5508	427	5667	-0.87	1.93	1.0000 
	-8	-7	-3	5186	387	5302	0.72	-2.39	1.0000 
	8	7	-3	4931	458	5035	0.55	-0.65	1.0000 
	-8	-7	3	4576	395	4676	0.55	0.65	1.0000 
	7	-8	-3	4943	455	5068	-0.6	-0.03	1.0000 
	8	7	3	4660	408	4769	0.72	2.39	1.0000 
	8	6	-3	1823	331	2214	-2.81	-1.15	1.0000 
	8	6	3	2237	287	2677	-2.87	1.1	1.0000 
	-8	-6	3	2275	316	2710	-2.81	1.15	1.0000 
	-8	-6	-3	2323	293	2771	-2.87	-1.1	1.0000 
	-8	-5	3	410	139	320	1.65	-1.58	1.0000 
	8	5	-3	383	151	296	1.65	1.58	1.0000 
	8	5	3	521	151	427	1.44	-0.48	1.0000 
	-8	-5	-3	259	115	194	1.44	0.48	1.0000 
	5	-8	3	210	100	187	-0.55	0.33	1.0000 
	4	-8	3	7103	418	6958	0.52	-1.2	1.0000 
	8	4	-3	7595	549	7647	0.18	-0.38	1.0000 
	4	-8	-3	7047	462	6910	0.48	1.36	1.0000 
	-8	-4	3	7045	447	7095	0.18	0.38	1.0000 
	-8	-4	-3	7589	424	7589	-0.03	-0.5	1.0000 
	8	4	3	6871	502	6871	-0.03	0.5	1.0000 
	3	-8	3	13594	648	13638	0.07	-0.82	1.0000 
	8	3	-3	13811	797	14092	-0.9	-1.8	1.0000 
	3	-8	-3	11155	653	11257	0.29	0.43	1.0000 
	-8	-3	3	13567	662	13846	-0.9	1.8	1.0000 
	-8	-3	-3	14085	622	14480	-1.13	-0.42	1.0000 
	8	3	3	14445	784	14845	-1.13	0.42	1.0000 
	8	2	-3	14818	839	15233	1.1	0.41	1.0000 
	2	-8	-3	15095	738	15824	-2.07	-1.95	1.0000 
	2	-8	3	14552	700	15306	-2.18	2.12	1.0000 
	-8	-2	-3	14142	633	14601	1.24	0.58	1.0000 
	8	2	3	13443	803	13890	1.24	-0.58	1.0000 
	-8	-2	3	15485	696	15909	1.1	-0.41	1.0000 
	2	-8	-3	14768	727	15489	-2.07	-1.95	1.0000 
	1	-8	-3	3101	279	2906	-1.15	-0.42	1.0000 
	8	1	3	2811	317	2645	1.05	0.17	1.0000 
	8	1	-3	2753	320	2592	1	-0.48	1.0000 
	1	-8	3	2796	273	2600	-1.21	0.57	1.0000 
	1	-8	-3	3199	250	3001	-1.15	-0.42	1.0000 
	-8	-1	-3	2977	202	2806	1.05	-0.17	1.0000 
	-1	-8	-3	2883	296	2717	1.01	-0.5	1.0000 
	8	-1	3	3079	315	2900	-1.06	0.43	1.0000 
	-1	-8	-3	2758	237	2595	1.01	-0.5	1.0000 
	8	-1	-3	2573	317	2373	-1.33	-0.21	1.0000 
	-1	-8	3	3405	309	3213	1.09	0.35	1.0000 
	8	-2	3	14913	832	15630	-2.05	1.94	1.0000 
	-2	-8	3	12141	687	12546	1.19	-0.41	1.0000 
	8	-2	-3	14515	818	15296	-2.26	-2.08	1.0000 
	-2	-8	-3	13391	701	13766	1.05	0.32	1.0000 
	-2	-8	-3	14180	660	14566	1.05	0.32	1.0000 
	8	-3	-3	13906	787	13974	0.22	-0.4	1.0000 
	8	-3	3	13630	801	13671	0.01	-1.51	1.0000 
	-3	-8	3	13229	699	13599	-1.14	1.17	1.0000 
	-3	-8	-3	13761	704	14120	-1.06	-0.74	1.0000 
	-4	-8	3	6945	459	6972	0.1	0.23	1.0000 
	8	-4	3	6328	522	6241	0.3	-1.34	1.0000 
	8	-4	-3	7735	533	7545	0.67	1.08	1.0000 
	-4	-8	-3	6632	449	6660	0.09	-0.45	1.0000 
	5	8	3	356	104	268	1.68	-0.8	1.0000 
	8	-5	-3	485	164	440	-0.7	0.41	1.0000 
	5	8	-3	426	132	346	1.41	1.29	1.0000 
	8	-5	3	221	165	192	-0.71	0.91	1.0000 
	-5	-8	3	317	136	248	1.41	-1.29	1.0000 
	-5	-8	-3	311	136	229	1.68	0.8	1.0000 
	6	8	-3	2606	369	3100	-3	-1.01	1.0000 
	8	-6	-3	2946	395	3435	2.92	0.16	1.0000 
	-6	-8	3	1993	311	2427	-3	1.01	1.0000 
	6	8	3	2527	291	2966	-2.69	1.13	1.0000 
	-6	-8	-3	2580	341	3023	-2.69	-1.13	1.0000 
	-7	-8	-3	4652	375	4750	0.66	-2.27	1.0000 
	7	8	3	4734	397	4833	0.66	2.27	1.0000 
	-7	-8	3	4952	413	5073	0.65	0.88	1.0000 
	8	-7	-3	5322	475	5472	-0.65	0.34	1.0000 
	7	8	-3	4803	450	4922	0.65	-0.88	1.0000 
	-8	-8	3	8812	551	8202	2.21	-0.03	1.0000 
	8	8	-3	8446	612	7849	2.21	0.03	1.0000 
	8	-8	-3	9049	624	8463	-2.29	-2.02	1.0000 
	-8	-8	-3	8864	534	8285	2.16	-0.78	1.0000 
	-9	-8	3	3544	390	3342	-1.16	-0.18	1.0000 
	9	8	-3	3835	439	3625	-1.16	0.18	1.0000 
	8	-9	-3	4135	451	3924	0.99	-2.59	1.0000 
	-9	-8	-3	3831	332	3567	-1.64	1.99	1.0000 
	-9	-7	3	2940	343	2875	0.47	0.73	1.0000 
	-9	-7	-3	2733	315	2688	0.34	-0.55	1.0000 
	7	-9	-3	2676	368	2780	0.62	-0.49	1.0000 
	9	7	-3	2431	370	2372	0.47	-0.73	1.0000 
	9	7	3	2241	315	2200	0.34	0.55	1.0000 
	9	6	-3	1869	315	1757	-0.83	-0.87	1.0000 
	9	6	3	1683	280	1588	-0.71	2.52	1.0000 
	-9	-6	3	1717	265	1610	-0.83	0.87	1.0000 
	-9	-6	-3	2042	259	1938	-0.71	-2.52	1.0000 
	9	5	3	1	99	6	-1.13	-0.46	1.0000 
	9	5	-3	117	136	149	-0.92	0.46	1.0000 
	-9	-5	3	529	166	596	-0.92	-0.46	1.0000 
	5	-9	3	43	92	81	1.67	1.76	1.0000 
	-9	-5	-3	169	106	217	-1.13	0.46	1.0000 
	5	-9	-3	187	118	247	1.3	-1.26	1.0000 
	9	4	3	1573	275	1441	1.03	-2.19	1.0000 
	9	4	-3	1254	261	1136	1.08	0.91	1.0000 
	-9	-4	-3	1608	204	1475	1.03	2.19	1.0000 
	4	-9	-3	1530	230	1442	-0.76	0.07	1.0000 
	-9	-4	3	1533	237	1402	1.08	-0.91	1.0000 
	4	-9	3	1666	228	1566	-0.77	-0.83	1.0000 
	-9	-3	-3	4620	304	4573	-0.26	0.37	1.0000 
	-9	-3	3	4059	320	4055	-0.06	-0.43	1.0000 
	9	3	-3	4667	436	4663	-0.06	0.43	1.0000 
	3	-9	3	3828	326	3948	-0.64	-0.1	1.0000 
	3	-9	-3	3882	352	3950	-0.39	-0.39	1.0000 
	9	3	3	3783	386	3740	-0.26	-0.37	1.0000 
	3	-9	-3	3531	311	3596	-0.39	-0.39	1.0000 
	-9	-2	-3	5412	327	5528	-0.5	-0.35	1.0000 
	2	-9	-3	4960	365	4968	-0.05	-1.14	1.0000 
	-9	-2	3	5278	362	5333	-0.24	0.2	1.0000 
	2	-9	-3	5328	400	5337	-0.05	-1.14	1.0000 
	9	2	3	4768	436	4877	-0.5	0.35	1.0000 
	2	-9	3	5778	397	5797	-0.06	1.74	1.0000 
	9	2	-3	5504	473	5560	-0.24	-0.2	1.0000 
	9	1	-3	1112	249	1087	-0.21	-0.58	1.0000 
	1	-9	3	1565	249	1620	-0.45	-0.08	1.0000 
	1	-9	-3	1302	237	1359	-0.48	0.49	1.0000 
	9	1	3	1618	271	1590	-0.21	0.31	1.0000 
	9	-1	-3	1137	264	1198	-0.6	-0.05	1.0000 
	9	-1	3	860	228	903	-0.43	-0.68	1.0000 
	-1	-9	3	1429	247	1402	-0.2	0.51	1.0000 
	-1	-9	-3	1540	253	1494	-0.36	-0.4	1.0000 
	9	-2	3	4626	433	4640	-0.05	1.56	1.0000 
	9	-2	-3	4736	432	4747	-0.04	-1.18	1.0000 
	-2	-9	-3	4643	389	4728	-0.39	-0.39	1.0000 
	-2	-9	3	3748	363	3821	-0.39	0.01	1.0000 
	-3	-9	-3	3972	354	3957	-0.12	0.48	1.0000 
	9	-3	3	3869	411	3995	-0.68	0.18	1.0000 
	-3	-9	3	3604	349	3575	-0.19	-0.36	1.0000 
	9	-3	-3	3921	401	3997	-0.41	-0.01	1.0000 
	9	-4	-3	1603	285	1526	-0.72	-0.65	1.0000 
	9	-4	3	1608	295	1489	-0.93	-1.37	1.0000 
	-4	-9	3	1610	269	1487	0.97	-1.06	1.0000 
	-4	-9	-3	1331	239	1221	0.92	1.96	1.0000 
	9	-5	3	230	191	307	1.47	1.52	1.0000 
	9	-5	-3	383	191	495	1.66	-1.55	1.0000 
	-5	-9	3	300	160	357	-1.03	-0.54	1.0000 
	-5	-9	-3	266	151	319	-1.03	0.27	1.0000 
	-6	-9	3	1666	280	1587	-0.61	1.01	1.0000 
	9	-6	-3	1435	295	1390	0.46	0.78	1.0000 
	-6	-9	-3	2052	295	1942	-0.76	-2.53	1.0000 
	9	-6	3	2018	354	1941	0.53	0.91	1.0000 
	7	9	-3	2563	364	2503	0.46	-0.67	1.0000 
	-7	-9	-3	2357	318	2308	0.38	-0.39	1.0000 
	9	-7	-3	2372	373	2445	0.45	-0.53	1.0000 
	9	-7	3	2408	418	2503	0.63	0.17	1.0000 
	-7	-9	3	3259	377	3192	0.46	0.67	1.0000 
	8	9	-3	3982	405	3747	-1.34	0.95	1.0000 
	9	-8	-3	3919	450	3687	1.13	-2.79	1.0000 
	-8	-9	-3	3840	387	3626	-1.34	1.81	1.0000 
	-8	-9	3	3402	382	3185	-1.34	-0.95	1.0000 
	-9	-9	3	1172	243	1138	0.29	-0.69	1.0000 
	-9	-9	-3	1373	244	1296	0.64	1.15	1.0000 
	9	9	-3	1580	324	1541	0.29	0.69	1.0000 
	9	-9	-3	1259	274	1109	-1.47	-0.15	1.0000 
	10	9	-3	1	96	9	1.72	-0.48	1.0000 
	-10	-9	-3	127	100	227	2.51	0.34	1.0000 
	-10	-9	3	46	107	88	1.72	0.48	1.0000 
	-10	-8	-3	72	102	86	-0.46	3.51	1.0000 
	-10	-8	3	250	102	281	-0.49	-1.99	1.0000 
	10	8	-3	118	101	137	-0.49	1.99	1.0000 
	-10	-7	-3	129	89	184	0.03	2.15	1.0000 
	7	-10	-3	6	100	9	-0.22	-1.7	1.0000 
	10	7	3	41	67	71	0.03	-2.15	1.0000 
	-10	-7	3	2	91	-59	0.29	-0.96	1.0000 
	10	7	-3	2	75	-169	0.29	0.96	1.0000 
	-10	-6	-3	168	104	252	1.9	-0.42	1.0000 
	10	6	-3	90	108	151	1.89	0.17	1.0000 
	10	6	3	42	115	88	1.9	0.42	1.0000 
	-10	-6	3	203	126	291	1.89	-0.17	1.0000 
	10	5	-3	51	131	185	-2.46	-3.55	1.0000 
	-10	-5	-3	284	138	495	-2.7	-2.39	1.0000 
	5	-10	3	132	126	277	3.1	-1.5	1.0000 
	-10	-5	3	65	125	210	-2.46	3.55	1.0000 
	10	5	3	60	128	173	-2.7	2.39	1.0000 
	10	4	3	462	156	407	-0.9	1.16	1.0000 
	-10	-4	3	566	151	506	-1.06	2.63	1.0000 
	4	-10	-3	650	180	579	0.95	-0.54	1.0000 
	10	4	-3	300	161	253	-1.06	-2.63	1.0000 
	4	-10	3	569	164	511	0.83	0.09	1.0000 
	-10	-3	3	899	189	900	-0.01	-1	1.0000 
	3	-10	3	883	198	846	-0.47	1.17	1.0000 
	10	3	-3	861	237	862	-0.01	1	1.0000 
	3	-10	-3	916	220	858	-0.69	-1.02	1.0000 
	10	3	3	685	204	659	0.33	-0.34	1.0000 
	2	-10	3	219	131	290	-1.5	-0.79	1.0000 
	10	2	3	424	194	535	1.7	-0.26	1.0000 
	10	2	-3	433	194	555	1.84	0.77	1.0000 
	2	-10	-3	373	183	464	-1.5	0.88	1.0000 
	10	1	-3	135	144	104	0.98	1.68	1.0000 
	1	-10	3	259	132	209	-1.13	0.71	1.0000 
	1	-10	-3	341	158	289	-1.05	-0.97	1.0000 
	10	1	3	426	184	375	0.94	-1.55	1.0000 
	-1	-10	3	269	156	229	0.95	-1.79	1.0000 
	-1	-10	-3	291	144	246	1.03	1.81	1.0000 
	10	-1	-3	264	162	218	-1.06	-1	1.0000 
	10	-1	3	288	138	233	-1.18	0.67	1.0000 
	-2	-10	3	346	191	445	1.67	-0.68	1.0000 
	10	-2	-3	582	231	692	-1.46	0.64	1.0000 
	10	-2	3	518	208	630	-1.56	-0.92	1.0000 
	-2	-10	-3	488	203	617	1.83	0.66	1.0000 
	-3	-10	-3	754	202	735	0.23	0.83	1.0000 
	10	-3	3	802	251	772	-0.43	1.49	1.0000 
	10	-3	-3	803	235	759	-0.57	-0.99	1.0000 
	-3	-10	3	1141	251	1129	0.12	-0.35	1.0000 
	10	-4	3	688	221	614	0.98	-0.43	1.0000 
	-4	-10	-3	183	139	145	-0.97	-1.66	1.0000 
	10	-4	-3	564	202	505	0.88	-1.15	1.0000 
	-4	-10	3	629	194	562	-1.05	2.19	1.0000 
	-5	-10	-3	191	155	381	-2.63	-2.77	1.0000 
	10	-5	3	7	135	71	3.16	-2.31	1.0000 
	10	-5	-3	92	147	208	3.13	0.69	1.0000 
	-5	-10	3	92	151	248	-2.48	3.29	1.0000 
	-6	-10	3	43	133	92	2.01	0.11	1.0000 
	10	-6	-3	49	134	99	-1.96	0.04	1.0000 
	-6	-10	-3	159	118	240	1.87	-0.39	1.0000 
	10	-6	3	46	156	93	-1.78	0.76	1.0000 
	-7	-10	-3	37	114	73	0.16	2.4	1.0000 
	-7	-10	3	2	98	-11	0.12	-1.03	1.0000 
	10	-7	-3	24	135	40	-0.23	-1.99	1.0000 
	10	-7	3	1	157	-29	-0.24	0.73	1.0000 
	8	10	-3	122	105	148	-0.67	2.14	1.0000 
	-8	-10	3	283	131	328	-0.67	-2.14	1.0000 
	10	-8	3	150	170	163	0.29	-1.42	1.0000 
	10	-8	-3	0	142	-13	0.36	0.03	1.0000 
	-8	-10	-3	125	115	146	-0.22	3.67	1.0000 
	10	-9	-3	133	156	209	-1.64	1.65	1.0000 
	-9	-10	-3	97	127	185	2.5	-0.54	1.0000 
	-9	-10	3	245	134	357	1.86	-1.58	1.0000 
	9	10	-3	223	124	330	1.86	1.58	1.0000 
	10	-9	3	15	189	51	-2.05	-1.39	1.0000 
	-10	-10	-3	196	141	451	-2.9	-5.24	1.0000 
	10	-10	3	137	204	290	3.2	2.27	1.0000 
	-11	-10	-3	136	107	292	-1.38	-3.75	1.0000 
	10	-11	3	99	218	255	1.84	4.03	1.0000 
	-11	-9	-3	305	113	284	-0.32	-1.45	1.0000 
	-11	-9	3	201	119	184	-0.35	0.55	1.0000 
	11	9	-3	1	96	-103	-0.35	-0.55	1.0000 
	11	8	-3	398	166	514	-1.92	0.84	1.0000 
	-11	-8	3	622	182	766	-1.92	-0.84	1.0000 
	11	7	-3	786	230	785	-0.31	1.89	1.0000 
	11	7	3	801	189	799	-0.31	-1.88	1.0000 
	-11	-7	3	759	208	757	-0.31	-1.89	1.0000 
	-11	-6	3	1625	274	1550	0.6	-0.57	1.0000 
	6	-11	-3	1355	250	1276	-0.73	-0.07	1.0000 
	11	6	3	1174	261	1108	0.65	-2.69	1.0000 
	11	6	-3	967	255	909	0.6	0.57	1.0000 
	5	-11	-3	136	129	234	1.31	4.49	1.0000 
	11	5	3	179	135	194	-0.72	2.31	1.0000 
	11	5	-3	136	146	217	-0.67	-4.11	1.0000 
	-11	-5	3	153	131	240	-0.67	4.11	1.0000 
	4	-11	-3	2	109	-10	0.89	-0.23	1.0000 
	11	4	-3	129	110	146	-1.32	-2.77	1.0000 
	4	-11	3	193	119	166	0.91	0.55	1.0000 
	-11	-4	3	283	124	318	-1.32	2.77	1.0000 
	11	4	3	94	95	113	-1.53	3.26	1.0000 
	3	-11	-3	588	198	622	0.65	-1.72	1.0000 
	3	-11	3	948	233	1030	1.01	1.21	1.0000 
	11	3	-3	440	212	557	-1.7	0.45	1.0000 
	11	3	3	741	232	876	-1.64	0.18	1.0000 
	-11	-3	3	581	159	715	-1.7	-0.45	1.0000 
	2	-11	-3	2737	343	2820	-0.56	0.39	1.0000 
	2	-11	3	2606	333	2696	-0.64	-0.8	1.0000 
	11	2	3	1762	333	1894	1.06	-0.31	1.0000 
	11	2	-3	2007	357	2126	0.93	0.7	1.0000 
	1	-11	3	833	209	791	-0.43	1.89	1.0000 
	11	1	3	758	245	746	0.6	-2.28	1.0000 
	11	1	-3	740	242	749	0.41	2.53	1.0000 
	1	-11	-3	495	196	472	-0.26	-2.22	1.0000 
	11	-1	3	832	251	801	-0.31	2.11	1.0000 
	11	-1	-3	760	245	719	-0.44	-2.07	1.0000 
	-1	-11	3	774	211	768	0.56	-2.4	1.0000 
	-1	-11	-3	961	248	960	0.52	2.4	1.0000 
	11	-2	-3	2652	417	2740	-0.59	0.31	1.0000 
	11	-2	3	2397	384	2474	-0.57	-0.7	1.0000 
	-2	-11	-3	2803	372	2953	0.99	0.69	1.0000 
	-2	-11	3	2896	389	3045	0.93	-0.15	1.0000 
	-3	-11	-3	554	217	667	-1.47	0.51	1.0000 
	11	-3	3	254	190	291	0.93	1.33	1.0000 
	11	-3	-3	753	261	814	0.9	-1.83	1.0000 
	-3	-11	3	368	188	479	-1.88	0.35	1.0000 
	-4	-11	3	140	169	154	-1.41	2.7	1.0000 
	11	-4	-3	99	145	75	0.95	-0.18	1.0000 
	-4	-11	-3	250	151	302	-1.25	-3.18	1.0000 
	11	-4	3	137	140	116	0.92	0.68	1.0000 
	-5	-11	-3	222	139	308	-0.71	-3.71	1.0000 
	-5	-11	3	84	124	98	-0.52	2.5	1.0000 
	11	-5	3	70	156	137	1.08	-4.62	1.0000 
	11	-5	-3	63	159	96	0.86	3.59	1.0000 
	-6	-11	-3	1385	279	1295	0.8	2.25	1.0000 
	11	-6	-3	1136	285	1044	-0.96	-0.4	1.0000 
	11	-6	3	1502	349	1416	-0.71	-1.23	1.0000 
	-6	-11	3	1369	276	1300	0.6	-0.9	1.0000 
	11	-7	3	651	250	645	-0.06	1.86	1.0000 
	-7	-11	3	732	216	710	-0.32	-0.35	1.0000 
	-7	-11	-3	1246	246	1284	-0.24	3.04	1.0000 
	11	-7	-3	1138	287	1093	0.34	-2.42	1.0000 
	11	-8	-3	415	209	510	1.6	0.93	1.0000 
	-8	-11	3	467	172	604	-1.9	0.67	1.0000 
	11	-8	3	379	230	462	1.46	-0.81	1.0000 
	-8	-11	-3	575	191	662	-1.25	0.69	1.0000 
	-9	-11	-3	218	118	196	-0.41	-1.91	1.0000 
	11	-9	-3	640	216	626	0.15	-0.28	1.0000 
	11	-9	3	390	209	355	0.52	1.01	1.0000 
	-9	-11	3	278	116	266	-0.39	-0.77	1.0000 
	11	-10	3	77	173	198	1.61	3.65	1.0000 
	-10	-11	-3	180	124	410	-1.86	-4.5	1.0000 
	-12	-9	3	1087	230	1216	-1.3	-0.34	1.0000 
	12	9	-3	1089	269	1218	-1.3	0.34	1.0000 
	-12	-8	3	2116	333	2097	-0.05	0.89	1.0000 
	12	8	-3	2123	377	2104	-0.05	-0.89	1.0000 
	12	7	-3	2200	387	2212	-0.16	0.57	1.0000 
	12	7	3	2084	354	2078	0.05	0.07	1.0000 
	-12	-7	3	2231	320	2243	-0.16	-0.57	1.0000 
	12	6	3	843	203	786	-0.92	-1.46	1.0000 
	-12	-6	3	1077	193	966	-1.18	-0.05	1.0000 
	12	6	-3	900	239	799	-1.18	0.05	1.0000 
	6	-12	-3	1086	210	1000	1.01	0.71	1.0000 
	5	-12	-3	79	103	71	0.27	0.94	1.0000 
	-12	-5	3	325	121	318	-0.21	1.23	1.0000 
	12	5	3	249	102	245	-0.12	0.75	1.0000 
	12	5	-3	505	185	497	-0.21	-1.23	1.0000 
	12	4	-3	2156	398	2220	-0.44	-0.24	1.0000 
	12	4	3	2038	370	2054	-0.06	0.6	1.0000 
	4	-12	-3	1907	302	1902	-0.03	0.07	1.0000 
	4	-12	3	1525	265	1559	0.3	-0.05	1.0000 
	12	3	-3	2076	377	2114	0.21	0.58	1.0000 
	12	3	3	2433	399	2485	0.26	-0.73	1.0000 
	3	-12	3	2346	322	2408	-0.43	0.06	1.0000 
	3	-12	-3	2886	369	2994	-0.75	-0.73	1.0000 
	2	-12	3	3928	408	3992	0.38	0.37	1.0000 
	12	2	3	3509	467	3801	-1.64	0.21	1.0000 
	2	-12	-3	3506	413	3594	0.57	-0.79	1.0000 
	12	2	-3	4110	469	4360	-1.28	0.1	1.0000 
	12	1	-3	699	216	585	-1.53	0.08	1.0000 
	12	1	3	513	184	413	-1.51	0.46	1.0000 
	1	-12	-3	730	198	624	1.37	-0.06	1.0000 
	1	-12	3	733	206	645	1.12	0.08	1.0000 
	-1	-12	-3	947	218	798	-1.67	-0.17	1.0000 
	12	-1	3	637	216	545	1.26	0.09	1.0000 
	-1	-12	3	1068	249	932	-1.4	0.35	1.0000 
	12	-1	-3	568	222	479	1.28	-0.15	1.0000 
	-2	-12	-3	3885	454	4155	-1.42	0.07	1.0000 
	12	-2	-3	3718	494	3799	0.49	-0.43	1.0000 
	-2	-12	3	3931	449	4207	-1.47	0.17	1.0000 
	12	-2	3	3617	489	3690	0.48	0.79	1.0000 
	-3	-12	3	2317	367	2312	-0.08	-0.38	1.0000 
	-3	-12	-3	2287	355	2352	0.33	1	1.0000 
	12	-3	-3	2642	434	2715	-0.56	-0.78	1.0000 
	12	-3	3	2238	407	2345	-0.76	0.09	1.0000 
	12	-4	-3	1252	328	1256	0.04	0.09	1.0000 
	-4	-12	3	1623	326	1679	-0.4	0.69	1.0000 
	12	-4	3	1364	342	1393	0.27	-0.12	1.0000 
	-4	-12	-3	1981	341	2014	-0.23	-0.26	1.0000 
	12	-5	-3	419	203	421	-0.03	0.63	1.0000 
	-5	-12	-3	325	163	321	-0.15	-1.21	1.0000 
	-5	-12	3	8	163	7	0	0.72	1.0000 
	12	-5	3	236	185	220	0.36	-0.87	1.0000 
	-6	-12	3	1068	249	976	-0.98	-0.08	1.0000 
	12	-6	-3	754	269	685	0.93	0.47	1.0000 
	-6	-12	-3	1198	248	1113	-1.06	1.25	1.0000 
	12	-6	3	1084	332	1019	1.06	-1.87	1.0000 
	12	-7	3	1440	358	1409	-0.27	-0.06	1.0000 
	12	-7	-3	1577	341	1537	-0.24	0.82	1.0000 
	-7	-12	3	2180	350	2191	-0.08	0.01	1.0000 
	-7	-12	-3	1786	308	1794	-0.12	0.41	1.0000 
	12	-8	3	2151	418	2151	-0.16	1.74	1.0000 
	-8	-12	-3	2565	367	2570	0.21	-2.05	1.0000 
	12	-8	-3	1885	384	1905	-0.25	-0.82	1.0000 
	12	-9	-3	891	290	1031	1.27	-1.73	1.0000 
	13	7	-3	2196	414	2267	0.49	0.06	1.0000 
	13	6	3	730	202	710	0.32	0.6	1.0000 
	13	6	-3	1441	334	1404	0.32	0.09	1.0000 
	13	5	-3	2	81	-21	-0.44	0.89	1.0000 
	5	-13	-3	10	90	-89	0.32	-2.07	1.0000 
	13	5	3	1	84	-53	-0.28	-0.39	1.0000 
	4	-13	-3	788	185	725	0.73	0.36	1.0000 
	13	4	3	623	185	611	-0.11	-0.35	1.0000 
	13	4	-3	743	225	703	-0.49	0.11	1.0000 
	13	3	3	3409	461	3227	1.2	1.08	1.0000 
	3	-13	3	2679	334	2517	-0.93	-1.35	1.0000 
	3	-13	-3	2797	365	2615	-1.03	1.38	1.0000 
	13	3	-3	2376	413	2197	1.37	-0.88	1.0000 
	13	2	3	4235	517	4109	-0.66	-0.06	1.0000 
	2	-13	-3	4372	417	4470	-0.53	-0.4	1.0000 
	13	2	-3	4289	527	4218	-0.35	-0.16	1.0000 
	2	-13	3	4447	402	4556	-0.56	0.2	1.0000 
	13	1	-3	791	242	788	0.1	-0.58	1.0000 
	1	-13	3	1471	268	1428	-0.34	-0.44	1.0000 
	13	1	3	721	221	711	0.17	0.31	1.0000 
	1	-13	-3	1558	304	1526	-0.23	0.41	1.0000 
	13	-1	-3	1243	302	1215	-0.22	0.45	1.0000 
	13	-1	3	1234	288	1203	-0.26	-0.39	1.0000 
	-1	-13	-3	1228	275	1221	0.11	-0.34	1.0000 
	-1	-13	3	931	237	924	0.15	0.58	1.0000 
	13	-2	-3	3862	522	3967	-0.57	-0.11	1.0000 
	13	-2	3	4358	543	4457	-0.54	0.45	1.0000 
	-2	-13	-3	4515	477	4417	-0.5	0.1	1.0000 
	-2	-13	3	3970	456	3889	-0.42	0.13	1.0000 
	13	-3	3	2752	457	2559	-1.12	-1.28	1.0000 
	13	-3	-3	2272	411	2120	-0.92	1.61	1.0000 
	-3	-13	-3	2570	387	2413	1.19	-1.01	1.0000 
	-3	-13	3	2608	392	2435	1.27	0.86	1.0000 
	-4	-13	3	805	238	766	-0.46	-0.1	1.0000 
	13	-4	3	1068	311	984	0.79	-0.93	1.0000 
	13	-4	-3	672	251	614	0.73	0.27	1.0000 
	-4	-13	-3	977	214	935	-0.42	0.33	1.0000 
	-5	-13	-3	2	76	-163	-0.46	0.95	1.0000 
	-5	-13	3	199	163	220	-0.47	-0.33	1.0000 
	13	-5	3	28	128	61	0.3	1.98	1.0000 
	13	-5	-3	7	149	24	0.19	-2.02	1.0000 
	13	-6	-3	1383	351	1374	-0.05	0.32	1.0000 
	13	-6	3	826	270	829	0.03	0.01	1.0000 
	-6	-13	3	1727	311	1687	0.33	0.06	1.0000 
	-6	-13	-3	1540	288	1526	0.18	-0.51	1.0000 
	13	-7	-3	1637	374	1781	-0.91	1.52	1.0000 
	14	5	3	236	129	304	1.24	-1.01	1.0000 
	5	-14	-3	153	131	205	-1.21	-0.87	1.0000 
	14	4	3	653	205	683	-0.37	0.23	1.0000 
	4	-14	-3	728	200	774	0.56	-0.11	1.0000 
	3	-14	3	1702	263	1603	0.72	-1.1	1.0000 
	14	3	-3	982	274	982	-0.29	-2.04	1.0000 
	3	-14	-3	948	211	864	0.82	1.35	1.0000 
	14	3	3	1625	329	1606	-0.52	2.3	1.0000 
	2	-14	3	1808	290	1707	-0.83	-0.24	1.0000 
	14	2	-3	1221	288	1136	0.73	-1.18	1.0000 
	2	-14	-3	1490	281	1400	-0.83	0.32	1.0000 
	14	2	3	1874	387	1741	0.98	0.76	1.0000 
	1	-14	-3	173	154	223	-1.25	0.56	1.0000 
	1	-14	3	644	201	742	-1.28	-0.34	1.0000 
	14	1	3	317	162	382	1.14	0.17	1.0000 
	14	1	-3	262	173	312	0.92	-0.57	1.0000 
	14	-1	3	666	251	758	-1.2	-0.4	1.0000 
	-1	-14	3	522	195	589	0.91	0.33	1.0000 
	14	-1	-3	570	252	662	-1.28	0.37	1.0000 
	-1	-14	-3	521	204	597	1.03	-0.39	1.0000 
	-2	-14	-3	1363	287	1272	0.76	-0.86	1.0000 
	14	-2	3	1555	362	1471	-0.76	-0.35	1.0000 
	-2	-14	3	1502	283	1392	0.86	1.28	1.0000 
	14	-2	-3	1211	317	1126	-0.85	0.15	1.0000 
	-3	-14	3	1871	342	1879	-0.27	2.1	1.0000 
	-3	-14	-3	1268	276	1262	-0.44	-2.47	1.0000 
	14	-3	-3	1671	372	1567	0.75	1.5	1.0000 
	0	0	-4	192056	3312	96790	-85.22	7.88	1.0000 
	1	0	-4	39010	1562	43832	-7.74	13.87	1.0000 
	1	0	-4	39087	1600	43914	-7.74	13.87	1.0000 
	0	-1	-4	39678	1578	44899	-8.32	13.44	1.0000 
	0	1	-4	38450	1543	43122	-7.52	14.47	1.0000 
	0	-1	4	41814	1418	46700	-7.52	-14.47	1.0000 
	1	1	-4	1849	239	4263	-3.42	14.58	1.0000 
	1	-1	4	2030	171	4663	-0.91	-15.52	1.0000 
	-1	1	-4	2208	222	4931	-0.91	15.52	1.0000 
	-1	-1	-4	1787	232	4324	-4.61	15.12	1.0000 
	1	-1	-4	1686	232	4198	-1.57	15.82	1.0000 
	1	1	-4	1867	204	4291	-3.42	14.58	1.0000 
	-1	-1	4	2073	211	4600	-3.42	-14.58	1.0000 
	1	-1	-4	1976	207	4649	-1.57	15.82	1.0000 
	1	-2	-4	8056	373	7959	-0.39	2.99	1.0000 
	-2	-1	4	7897	337	7819	-0.47	-5.14	1.0000 
	2	1	4	7578	343	7430	-0.86	-6.19	1.0000 
	1	-2	4	8218	299	8261	0.18	-1.5	1.0000 
	-2	-1	-4	7751	297	7602	-0.86	6.19	1.0000 
	1	-2	-4	8018	321	7921	-0.39	2.99	1.0000 
	2	1	-4	8201	381	8122	-0.47	5.14	1.0000 
	0	-2	-4	11743	1291	32371	47.14	10.51	1.0000 
	0	2	-4	14421	1240	36874	47.95	2.2	1.0000 
	-2	0	-4	13416	1130	35151	47.57	6.16	1.0000 
	0	-2	4	15345	1169	38344	47.95	-2.2	1.0000 
	-2	0	-4	13552	1297	35371	47.57	6.16	1.0000 
	2	0	-4	13641	1328	35600	47.7	6.37	1.0000 
	1	2	4	7998	312	7835	-0.99	-6.73	1.0000 
	2	-1	-4	7561	359	7484	-0.3	2.55	1.0000 
	1	2	-4	8488	399	8447	-0.31	4.82	1.0000 
	1	2	-4	8501	308	8460	-0.31	4.82	1.0000 
	-1	-2	-4	7579	367	7417	-0.99	6.73	1.0000 
	-1	-2	4	8480	340	8439	-0.31	-4.82	1.0000 
	-2	-2	-4	9013	803	19953	-30.88	1.52	1.0000 
	2	2	4	9112	777	20100	-30.88	-1.52	1.0000 
	-2	-2	-4	9138	714	20138	-30.88	1.52	1.0000 
	-2	-2	4	9598	744	21088	-31.13	-7.11	1.0000 
	2	-2	4	9986	675	21869	-31.6	-7.1	1.0000 
	2	2	-4	8843	838	19959	-31.13	7.11	1.0000 
	2	-2	-4	8698	789	19774	-31.59	0.47	1.0000 
	3	2	4	783	114	855	0.84	-0.02	1.0000 
	-3	-2	-4	553	91	614	0.84	0.02	1.0000 
	-3	-2	4	862	131	1001	1.33	-1.67	1.0000 
	-3	-2	-4	905	136	983	0.84	0.02	1.0000 
	2	-3	-4	814	106	922	-0.9	5.71	1.0000 
	3	2	-4	847	143	985	1.33	1.67	1.0000 
	2	-3	4	962	99	1035	0.15	-2.99	1.0000 
	3	1	-4	3438	199	2455	6.99	-4.83	1.0000 
	-3	-1	-4	3090	129	2165	6.78	-4.32	1.0000 
	-3	-1	4	3328	174	2361	6.99	4.83	1.0000 
	1	-3	4	2891	144	2110	7.1	7.56	1.0000 
	3	1	4	2904	169	2008	6.78	4.32	1.0000 
	1	-3	-4	2715	180	1949	6.54	-6.08	1.0000 
	3	0	-4	6985	232	3420	16.73	-2.98	1.0000 
	0	-3	4	7513	200	3704	17.21	2.16	1.0000 
	0	-3	-4	6904	221	3375	16.66	-2.93	1.0000 
	-3	0	-4	6486	136	3010	17.1	-2.21	1.0000 
	3	-1	-4	3042	187	2257	6.54	-6.53	1.0000 
	-1	-3	4	3502	175	2531	7.06	5.44	1.0000 
	-1	-3	-4	3604	199	2575	6.78	-3.62	1.0000 
	1	3	4	3444	133	2439	6.78	3.62	1.0000 
	3	-2	-4	893	124	929	-0.69	3.91	1.0000 
	2	3	4	621	85	695	0.63	-2.24	1.0000 
	-2	-3	-4	783	123	867	0.63	2.24	1.0000 
	2	3	-4	786	142	903	1.35	-0.53	1.0000 
	-2	-3	-4	646	108	722	0.63	2.24	1.0000 
	-2	-3	4	817	128	936	1.35	0.53	1.0000 
	3	-3	4	555	63	378	-6.47	-8.84	1.0000 
	-3	-3	-4	569	89	301	-7.12	7.08	1.0000 
	3	3	-4	600	108	348	-6.16	6.43	1.0000 
	3	3	4	641	81	369	-7.12	-7.08	1.0000 
	3	-3	-4	531	86	318	-7.81	9.37	1.0000 
	-3	-3	-4	656	102	383	-7.12	7.08	1.0000 
	-3	-3	4	750	115	485	-6.16	-6.43	1.0000 
	3	-4	4	761	148	1914	-10.75	0.85	1.0000 
	4	3	4	656	182	1914	-12.11	0.27	1.0000 
	-4	-3	4	840	199	2178	-11.83	-0.18	1.0000 
	4	3	-4	698	210	1946	-11.83	0.18	1.0000 
	-4	-3	-4	798	171	2152	-12.11	-0.27	1.0000 
	-4	-2	4	572	89	187	11.31	4.12	1.0000 
	4	2	4	466	64	48	10.04	0.31	1.0000 
	2	-4	-4	830	92	197	10.02	0.17	1.0000 
	2	-4	4	545	68	162	11.41	4.07	1.0000 
	-4	-2	-4	754	64	169	10.04	-0.31	1.0000 
	4	2	-4	438	74	75	11.31	-4.12	1.0000 
	1	-4	4	9048	470	12169	10.21	1.42	1.0000 
	-4	-1	-4	8867	430	11933	10.12	-1.1	1.0000 
	1	-4	-4	7487	515	10283	9.96	-0.31	1.0000 
	-4	-1	4	9146	497	12297	10.25	1.33	1.0000 
	4	1	-4	7954	558	10908	10.25	-1.33	1.0000 
	4	1	4	8166	540	11118	10.12	1.1	1.0000 
	0	-4	4	95	63	95	1.27	-1.92	1.0000 
	4	0	4	7	62	-3	1.45	-0.94	1.0000 
	4	0	-4	28	71	34	1.25	0.8	1.0000 
	-4	0	-4	55	32	67	1.45	0.94	1.0000 
	0	-4	-4	50	70	75	1.36	-0.07	1.0000 
	-1	-4	4	9367	511	12549	10.25	1.58	1.0000 
	4	-1	-4	8734	568	11718	9.93	-0.87	1.0000 
	-1	-4	-4	8340	533	11316	10.1	-0.74	1.0000 
	-1	-4	-4	8955	516	12031	10.1	-0.74	1.0000 
	4	-2	-4	552	65	76	9.99	0.12	1.0000 
	2	4	4	683	50	133	10.05	0.19	1.0000 
	-2	-4	4	424	74	63	11.21	3.99	1.0000 
	-2	-4	-4	658	75	122	10.05	-0.19	1.0000 
	-2	-4	-4	590	67	93	10.05	-0.19	1.0000 
	2	4	-4	579	88	187	11.21	-3.99	1.0000 
	3	4	-4	708	214	1950	-11.72	0.08	1.0000 
	-3	-4	-4	817	198	2215	-12.34	-0.12	1.0000 
	4	-3	-4	768	198	1979	-11.15	-0.97	1.0000 
	-3	-4	-4	945	202	2424	-12.34	-0.12	1.0000 
	3	4	4	704	163	2027	-12.34	0.12	1.0000 
	-3	-4	4	776	196	2061	-11.72	-0.08	1.0000 
	4	-4	-4	7178	296	4120	-14.04	2.37	1.0000 
	4	4	-4	7352	325	4220	-14.39	3.33	1.0000 
	-4	-4	-4	7838	281	4619	-13.84	0.73	1.0000 
	4	4	4	7409	280	4291	-13.84	-0.73	1.0000 
	-4	-4	4	7428	295	4278	-14.39	-3.33	1.0000 
	4	-5	-4	8878	473	8553	1.04	3.55	1.0000 
	5	4	4	8740	470	8391	1.14	-3	1.0000 
	-5	-4	-4	8855	425	8504	1.14	3	1.0000 
	-5	-4	4	8802	455	8415	1.31	-1.56	1.0000 
	4	-5	4	9400	393	8990	1.31	-3.09	1.0000 
	5	4	-4	8812	517	8425	1.31	1.56	1.0000 
	-5	-3	4	1304	175	1260	-0.4	2.17	1.0000 
	-5	-3	-4	1466	154	1417	-0.41	-1.98	1.0000 
	3	-5	4	1436	147	1475	0.35	2.23	1.0000 
	5	3	-4	1389	210	1344	-0.4	-2.17	1.0000 
	5	3	4	1117	165	1073	-0.41	1.98	1.0000 
	-5	-2	4	55	96	136	3.16	2.72	1.0000 
	5	2	4	116	100	223	2.9	0.45	1.0000 
	-5	-2	-4	125	71	235	2.9	-0.45	1.0000 
	5	2	-4	83	107	185	3.16	-2.72	1.0000 
	2	-5	-4	124	104	267	3.37	-3.73	1.0000 
	2	-5	4	51	72	133	3.24	2.87	1.0000 
	5	1	4	6563	388	6408	0.69	0.56	1.0000 
	5	1	-4	6281	407	6263	0.12	-0.53	1.0000 
	1	-5	-4	6948	378	7021	-0.34	0.56	1.0000 
	1	-5	4	6186	332	6350	-0.65	0.5	1.0000 
	-5	-1	4	6508	346	6490	0.12	0.53	1.0000 
	-5	-1	-4	6559	285	6404	0.69	-0.56	1.0000 
	0	-5	4	3999	132	2984	-5.48	2.75	1.0000 
	-5	0	-4	3582	148	2660	-5.39	-1.37	1.0000 
	5	0	-4	3686	255	2772	-5.38	-0.44	1.0000 
	5	0	4	3781	245	2832	-5.39	1.37	1.0000 
	0	-5	-4	3816	221	2901	-5.56	1.1	1.0000 
	0	-5	4	3318	199	2399	-5.48	2.75	1.0000 
	-1	-5	-4	6397	361	6347	0.22	-0.08	1.0000 
	-1	-5	-4	6689	369	6638	0.22	-0.08	1.0000 
	-1	-5	4	6641	357	6564	0.38	0.72	1.0000 
	5	-1	-4	6780	410	6820	-0.16	-0.04	1.0000 
	-2	-5	-4	165	95	294	3	-2.04	1.0000 
	-2	-5	-4	192	108	331	3	-2.04	1.0000 
	-2	-5	4	50	91	132	3.18	1.03	1.0000 
	5	-2	-4	83	92	187	3.25	-2.53	1.0000 
	-3	-5	-4	1439	166	1405	-0.29	-2.17	1.0000 
	3	5	4	1262	142	1230	-0.29	2.17	1.0000 
	-3	-5	4	1055	164	1009	-0.44	1.97	1.0000 
	3	5	-4	1136	183	1088	-0.44	-1.97	1.0000 
	5	-3	-4	1119	181	1173	0.56	-2.11	1.0000 
	-3	-5	-4	1084	162	1054	-0.29	-2.17	1.0000 
	5	-4	-4	9264	500	8899	1.16	4.06	1.0000 
	-4	-5	-4	8415	434	8059	1.2	2.61	1.0000 
	4	5	4	8918	449	8552	1.2	-2.61	1.0000 
	4	5	-4	8529	511	8187	1.15	2.14	1.0000 
	-4	-5	4	9328	465	8971	1.15	-2.14	1.0000 
	-4	-5	-4	9006	461	8638	1.2	2.61	1.0000 
	-5	-5	-4	7144	424	7396	0.41	4.77	1.0000 
	-5	-5	4	7844	458	8193	0.84	-4.02	1.0000 
	5	5	4	8094	465	8366	0.41	-4.77	1.0000 
	5	-5	-4	8138	493	8487	0.72	4.61	1.0000 
	5	5	-4	7439	511	7778	0.84	4.02	1.0000 
	-6	-5	4	1229	215	1268	-0.44	-0.37	1.0000 
	5	-6	-4	1561	227	1608	-0.48	0.49	1.0000 
	-6	-5	-4	1777	218	1832	-0.42	-0.08	1.0000 
	6	5	-4	1803	270	1850	-0.44	0.37	1.0000 
	6	5	4	1551	216	1602	-0.42	0.08	1.0000 
	5	-6	4	1411	163	1463	-0.76	-3.18	1.0000 
	-6	-4	4	2455	272	2780	2.14	-0.04	1.0000 
	4	-6	4	1979	194	2351	2.72	0.28	1.0000 
	6	4	4	2144	250	2495	2.03	-2.36	1.0000 
	-6	-4	-4	1872	201	2201	2.03	2.36	1.0000 
	6	4	-4	2261	297	2574	2.14	0.04	1.0000 
	3	-6	-4	113	111	196	2.4	1.78	1.0000 
	-6	-3	-4	330	105	436	1.81	3.53	1.0000 
	6	3	4	228	119	313	1.81	-3.53	1.0000 
	-6	-3	4	118	107	171	1.73	-2.85	1.0000 
	6	3	-4	138	109	197	1.73	2.85	1.0000 
	3	-6	4	78	81	156	2.49	-0.49	1.0000 
	6	2	4	751	172	932	-2.1	-0.24	1.0000 
	2	-6	-4	533	138	689	-2.13	0.09	1.0000 
	-6	-2	-4	807	123	994	-2.1	0.24	1.0000 
	6	2	-4	644	179	816	-2.1	-0.48	1.0000 
	2	-6	4	962	153	1213	-2.5	0.64	1.0000 
	-6	-2	4	881	172	1080	-2.1	0.48	1.0000 
	-6	-1	-4	4984	242	4708	-1.22	-2.16	1.0000 
	1	-6	4	5579	309	5198	-1.64	1.69	1.0000 
	6	1	4	4576	335	4311	-1.22	2.16	1.0000 
	6	1	-4	4916	365	4636	-1.23	-2.95	1.0000 
	-6	-1	4	4561	287	4291	-1.23	2.95	1.0000 
	1	-6	-4	5851	335	5516	-1.41	-1.26	1.0000 
	0	-6	4	5765	354	5867	-0.23	2.08	1.0000 
	6	0	4	6161	420	6298	-0.38	1.9	1.0000 
	0	-6	-4	6273	370	6428	-0.47	-1.73	1.0000 
	6	0	-4	6047	416	6166	-0.33	-1.76	1.0000 
	0	-6	4	6113	255	6219	-0.23	2.08	1.0000 
	0	-6	-4	6126	381	6279	-0.47	-1.73	1.0000 
	-1	-6	-4	5546	319	5209	-1.43	-2.21	1.0000 
	-1	-6	4	4628	304	4367	-1.18	2.62	1.0000 
	-1	-6	-4	4902	314	4585	-1.43	-2.21	1.0000 
	6	-1	-4	4875	356	4609	-1.23	-1.04	1.0000 
	6	-1	4	4953	356	4578	-1.72	1.8	1.0000 
	-2	-6	-4	726	143	904	-2.09	0.15	1.0000 
	-2	-6	4	1021	185	1248	-2.23	0.46	1.0000 
	-2	-6	-4	873	177	1067	-2.09	0.15	1.0000 
	6	-2	-4	995	196	1197	-2.04	-0.12	1.0000 
	3	6	4	206	80	288	1.86	-3.94	1.0000 
	-3	-6	-4	195	95	274	1.86	3.94	1.0000 
	-3	-6	4	70	103	108	1.68	-2.54	1.0000 
	-3	-6	-4	103	101	151	1.86	3.94	1.0000 
	6	-3	-4	98	100	181	2.49	1.29	1.0000 
	-4	-6	4	2010	260	2344	2.2	-1.32	1.0000 
	-4	-6	-4	1991	226	2288	1.93	1.47	1.0000 
	6	-4	-4	2160	267	2541	2.5	0.99	1.0000 
	4	6	4	2391	225	2716	1.93	-1.47	1.0000 
	-4	-6	-4	2578	256	2915	1.93	1.47	1.0000 
	4	6	-4	2255	297	2608	2.2	1.32	1.0000 
	5	6	4	1713	211	1784	-0.41	0.81	1.0000 
	5	6	-4	1454	245	1486	-0.46	1.2	1.0000 
	-5	-6	-4	1591	226	1660	-0.41	-0.81	1.0000 
	-5	-6	4	1203	215	1232	-0.46	-1.2	1.0000 
	6	-5	-4	1351	220	1396	-0.63	1.58	1.0000 
	6	6	-4	158	135	218	1.66	-0.29	1.0000 
	-6	-6	-4	372	140	465	1.81	-0.74	1.0000 
	6	-6	-4	344	153	437	1.65	0.06	1.0000 
	6	6	4	247	118	324	1.81	0.74	1.0000 
	-6	-6	4	190	144	256	1.66	0.29	1.0000 
	7	6	4	313	121	360	-0.75	0.87	1.0000 
	-7	-6	-4	282	120	327	-0.75	-0.87	1.0000 
	6	-7	-4	278	157	350	-0.57	-3.51	1.0000 
	-7	-6	4	794	200	882	-0.53	2.26	1.0000 
	7	6	-4	226	149	270	-0.53	-2.26	1.0000 
	5	-7	4	614	139	703	1.18	0.18	1.0000 
	-7	-5	4	545	171	649	1.47	2.71	1.0000 
	7	5	4	652	177	776	1.56	2.86	1.0000 
	7	5	-4	505	185	605	1.47	-2.71	1.0000 
	-7	-5	-4	542	156	654	1.56	-2.86	1.0000 
	7	4	-4	1572	265	1546	0.19	1.56	1.0000 
	4	-7	4	1622	191	1558	0.56	-2.75	1.0000 
	4	-7	-4	2148	259	2069	0.61	2.54	1.0000 
	-7	-4	4	1711	240	1684	0.19	-1.56	1.0000 
	-7	-4	-4	1454	188	1429	0.19	1.68	1.0000 
	7	4	4	1513	234	1488	0.19	-1.68	1.0000 
	-7	-3	4	169	155	570	-0.31	-7.26	1.0000 
	3	-7	4	177	138	505	-0.06	-6.14	1.0000 
	3	-7	-4	28	122	215	0.1	6.26	1.0000 
	7	3	-4	95	162	425	-0.31	7.26	1.0000 
	-7	-3	-4	115	110	463	-0.1	7.22	1.0000 
	7	3	4	0	107	109	-0.1	-7.22	1.0000 
	7	2	-4	566	185	698	-1.57	1.58	1.0000 
	2	-7	4	546	155	680	-1.53	-2.03	1.0000 
	7	2	4	553	179	682	-1.41	-2.22	1.0000 
	2	-7	-4	512	153	639	-1.52	1.88	1.0000 
	-7	-2	4	952	182	1122	-1.57	-1.58	1.0000 
	-7	-2	-4	903	137	1069	-1.41	2.22	1.0000 
	7	1	4	2	83	38	-0.84	3.9	1.0000 
	-7	-1	-4	39	54	142	-0.84	-3.9	1.0000 
	1	-7	-4	26	93	120	-0.74	-4.15	1.0000 
	1	-7	4	8	39	72	-0.7	4.2	1.0000 
	7	1	-4	35	89	-15	-0.73	-3.88	1.0000 
	1	-7	4	17	100	101	-0.7	4.2	1.0000 
	7	0	-4	56	85	30	0.46	-4.64	1.0000 
	0	-7	-4	184	97	193	0.49	-4.88	1.0000 
	0	-7	4	102	98	86	0.29	4.76	1.0000 
	7	0	4	57	87	24	0.4	4.88	1.0000 
	0	-7	-4	313	133	343	0.49	-4.88	1.0000 
	7	-1	-4	42	112	155	-0.66	-4.21	1.0000 
	-1	-7	4	35	116	134	-0.74	3.98	1.0000 
	7	-1	4	4	91	57	-0.81	4.09	1.0000 
	-1	-7	-4	45	97	154	-0.87	-3.95	1.0000 
	-1	-7	-4	25	114	114	-0.87	-3.95	1.0000 
	7	-2	4	1031	223	1216	-1.62	-1.71	1.0000 
	-2	-7	-4	503	166	634	-1.63	1.73	1.0000 
	-2	-7	-4	751	154	911	-1.63	1.73	1.0000 
	7	-2	-4	596	188	733	-1.5	1.97	1.0000 
	-2	-7	4	693	177	829	-1.38	-1.9	1.0000 
	7	-3	4	32	142	226	-0.09	-6.3	1.0000 
	7	-3	-4	0	109	75	0.01	6.01	1.0000 
	-3	-7	-4	91	120	425	-0.31	7.4	1.0000 
	-3	-7	-4	72	143	382	-0.31	7.4	1.0000 
	-3	-7	4	148	159	525	-0.24	-7.17	1.0000 
	-4	-7	-4	2179	224	2150	0.19	1.59	1.0000 
	4	7	4	1688	200	1662	0.19	-1.59	1.0000 
	7	-4	-4	1430	238	1358	0.65	2.52	1.0000 
	-4	-7	4	1854	247	1823	0.22	-1.74	1.0000 
	-4	-7	-4	1704	238	1677	0.19	1.59	1.0000 
	-5	-7	-4	619	174	745	1.61	-2.99	1.0000 
	-5	-7	4	653	197	771	1.52	2.5	1.0000 
	5	7	4	846	173	995	1.61	2.99	1.0000 
	7	-5	-4	832	210	929	1.16	-1.16	1.0000 
	5	7	-4	545	193	652	1.52	-2.5	1.0000 
	6	7	-4	442	171	511	-0.66	-2.12	1.0000 
	7	-6	-4	192	129	240	-0.54	-2.94	1.0000 
	6	7	4	354	121	396	-0.6	0.88	1.0000 
	-6	-7	4	373	171	436	-0.66	2.12	1.0000 
	-6	-7	-4	670	186	727	-0.6	-0.88	1.0000 
	-7	-7	-4	1044	176	719	-3.67	-0.11	1.0000 
	-7	-7	4	1181	206	856	-3.43	1.26	1.0000 
	7	-7	-4	844	188	609	-3.18	-3.45	1.0000 
	7	7	-4	528	150	318	-3.43	-1.26	1.0000 
	7	7	4	935	156	629	-3.67	0.11	1.0000 
	-8	-7	4	623	196	620	-0.03	0.17	1.0000 
	7	-8	-4	162	150	170	0.22	-0.07	1.0000 
	8	7	4	414	132	422	0.12	0.86	1.0000 
	-8	-7	-4	548	148	558	0.12	-0.86	1.0000 
	8	7	-4	620	188	617	-0.03	-0.17	1.0000 
	-8	-6	-4	1525	251	1964	-3.52	0.17	1.0000 
	6	-8	-4	1132	264	1487	-3.27	-0.19	1.0000 
	8	6	-4	1165	284	1550	-3.51	0.85	1.0000 
	8	6	4	1186	254	1577	-3.52	-0.17	1.0000 
	-8	-6	4	963	240	1316	-3.51	-0.85	1.0000 
	8	5	4	1255	221	1128	-1.32	-1.35	1.0000 
	5	-8	-4	1344	238	1231	-1.04	-0.22	1.0000 
	5	-8	4	1072	169	965	-1.1	0.6	1.0000 
	8	5	-4	1441	268	1324	-1.14	1.2	1.0000 
	-8	-5	4	1320	228	1208	-1.14	-1.2	1.0000 
	-8	-5	-4	1440	200	1304	-1.32	1.35	1.0000 
	4	-8	-4	309	126	235	1.65	2.4	1.0000 
	8	4	-4	51	104	28	1.15	0.96	1.0000 
	-8	-4	4	517	145	440	1.15	-0.96	1.0000 
	4	-8	4	361	112	289	1.48	-2.29	1.0000 
	-8	-4	-4	390	115	337	0.9	0.6	1.0000 
	8	4	4	244	124	202	0.9	-0.6	1.0000 
	-8	-3	-4	243	107	376	2.47	0.68	1.0000 
	8	3	4	65	122	140	2.47	-0.68	1.0000 
	8	3	-4	67	131	153	2.75	0.56	1.0000 
	3	-8	-4	99	105	210	1.85	3.62	1.0000 
	3	-8	4	215	138	378	1.86	-3.67	1.0000 
	-8	-3	4	249	141	398	2.75	-0.56	1.0000 
	8	2	-4	3297	352	3507	1.2	-0.14	1.0000 
	-8	-2	-4	3298	232	3526	1.3	0.09	1.0000 
	-8	-2	4	3463	295	3678	1.2	0.14	1.0000 
	2	-8	4	2707	288	2897	1.19	-0.42	1.0000 
	2	-8	-4	3019	288	3220	1.2	0.14	1.0000 
	8	2	4	2767	325	2977	1.3	-0.09	1.0000 
	8	1	-4	3418	373	3680	-1.4	-1.58	1.0000 
	1	-8	-4	4071	344	4311	-1.07	-2.81	1.0000 
	1	-8	4	3449	306	3687	-1.17	2.77	1.0000 
	8	1	4	4247	390	4508	-1.24	1.64	1.0000 
	-8	-1	-4	4401	256	4667	-1.24	-1.64	1.0000 
	1	-8	-4	4133	317	4375	-1.07	-2.81	1.0000 
	8	0	-4	2872	337	2784	-0.55	-2.29	1.0000 
	0	-8	4	3733	302	3599	-0.74	2.15	1.0000 
	0	-8	-4	3651	277	3544	-0.61	-2.43	1.0000 
	0	-8	-4	3141	309	3041	-0.61	-2.43	1.0000 
	8	0	4	3030	315	2920	-0.67	2.3	1.0000 
	-1	-8	-4	4269	361	4567	-1.4	-2	1.0000 
	8	-1	-4	3609	383	3841	-1.11	-2.82	1.0000 
	-1	-8	4	4205	342	4444	-1.14	1.7	1.0000 
	8	-1	4	3513	371	3759	-1.19	2.91	1.0000 
	-1	-8	-4	4008	310	4297	-1.4	-2	1.0000 
	8	-2	4	2933	339	3114	1.1	-0.1	1.0000 
	-2	-8	-4	3075	315	3253	1.06	-0.05	1.0000 
	8	-2	-4	3015	348	3213	1.17	0.49	1.0000 
	-2	-8	4	3407	323	3656	1.4	0.03	1.0000 
	-2	-8	-4	3271	272	3455	1.06	-0.05	1.0000 
	-3	-8	-4	252	118	391	2.53	0.72	1.0000 
	8	-3	-4	132	153	255	1.76	3.56	1.0000 
	-3	-8	-4	40	131	105	2.53	0.72	1.0000 
	8	-3	4	10	112	19	1.9	-3.42	1.0000 
	-3	-8	4	380	184	548	2.54	-0.78	1.0000 
	-4	-8	-4	222	139	169	1.23	0.6	1.0000 
	-4	-8	4	249	131	211	0.81	-0.86	1.0000 
	8	-4	-4	316	145	245	1.5	2.07	1.0000 
	8	-4	4	188	145	129	1.63	-2.27	1.0000 
	8	-5	-4	1180	244	1074	-1.05	-0.27	1.0000 
	-5	-8	-4	1255	222	1145	-1.16	1.39	1.0000 
	-5	-8	4	1487	248	1349	-1.32	-1.28	1.0000 
	6	8	-4	798	253	1117	-3.47	0.69	1.0000 
	-6	-8	4	1017	255	1374	-3.47	-0.69	1.0000 
	8	-6	-4	1488	308	1878	-3.17	-0.24	1.0000 
	-6	-8	-4	1501	275	1932	-3.49	0.43	1.0000 
	-7	-8	4	609	202	613	0.06	0.4	1.0000 
	7	8	-4	455	163	459	0.06	-0.4	1.0000 
	-7	-8	-4	296	145	307	0.21	-0.95	1.0000 
	8	-7	-4	225	142	243	0.4	-0.05	1.0000 
	8	8	-4	714	212	754	-0.46	-1.95	1.0000 
	-8	-8	4	1814	299	1883	-0.46	1.95	1.0000 
	8	-8	-4	1295	287	1476	-1.52	-2.47	1.0000 
	-8	-8	-4	1682	272	1747	-0.52	-0.64	1.0000 
	8	-9	-4	0	121	24	-3.13	-1.8	1.0000 
	-9	-8	-4	177	108	326	-2.94	1.65	1.0000 
	-9	-8	4	117	151	239	-2.88	1.17	1.0000 
	9	8	-4	101	114	217	-2.88	-1.17	1.0000 
	9	7	4	10	59	-12	2.07	0.44	1.0000 
	-9	-7	4	21	100	53	1.78	0.29	1.0000 
	-9	-7	-4	246	138	355	2.07	-0.44	1.0000 
	9	7	-4	87	126	145	1.78	-0.29	1.0000 
	9	6	-4	1612	311	1555	-0.68	1.27	1.0000 
	-9	-6	4	1374	251	1321	-0.68	-1.27	1.0000 
	-9	-6	-4	1254	211	1134	-1.06	-1.17	1.0000 
	9	6	4	1688	270	1549	-1.06	1.17	1.0000 
	6	-9	-4	1850	292	1804	-0.93	2.74	1.0000 
	-9	-5	-4	2653	259	2863	-1.46	2.13	1.0000 
	9	5	-4	2225	351	2407	-1.41	2.7	1.0000 
	9	5	4	2319	336	2515	-1.46	-2.13	1.0000 
	-9	-5	4	2504	321	2698	-1.41	-2.7	1.0000 
	5	-9	4	2435	254	2636	-1.34	0	1.0000 
	5	-9	-4	2796	319	3042	-1.49	-0.31	1.0000 
	-9	-4	-4	1900	228	1938	0.32	-0.48	1.0000 
	4	-9	4	1860	240	1876	0.07	-0.56	1.0000 
	-9	-4	4	1715	263	1696	-0.13	0.39	1.0000 
	9	4	4	1798	294	1835	0.32	0.48	1.0000 
	9	4	-4	1631	306	1612	-0.13	-0.39	1.0000 
	4	-9	-4	1534	242	1562	0.28	-0.59	1.0000 
	3	-9	-4	325	130	317	0.3	-1.55	1.0000 
	3	-9	4	315	134	316	0.16	1.67	1.0000 
	-9	-3	4	617	157	635	0.86	4.74	1.0000 
	9	3	4	229	137	229	0.48	3.95	1.0000 
	-9	-3	-4	328	97	335	0.48	-3.95	1.0000 
	9	3	-4	383	166	386	0.86	-4.74	1.0000 
	2	-9	-4	2946	283	2906	0.25	-0.16	1.0000 
	2	-9	-4	2386	295	2350	0.25	-0.16	1.0000 
	-9	-2	4	2734	279	2682	0.36	0.56	1.0000 
	2	-9	4	3096	307	3073	0.16	0.54	1.0000 
	9	2	4	2675	343	2660	0.12	0.63	1.0000 
	9	2	-4	2606	344	2555	0.36	-0.56	1.0000 
	1	-9	-4	5352	398	5232	-0.64	1.17	1.0000 
	1	-9	4	5386	383	5257	-0.73	-1.65	1.0000 
	9	1	4	5406	448	5323	-0.5	-1.55	1.0000 
	1	-9	-4	5701	375	5578	-0.64	1.17	1.0000 
	9	1	-4	5627	480	5537	-0.55	1.79	1.0000 
	0	-9	-4	5921	425	5603	1.34	0.85	1.0000 
	9	0	-4	6167	484	5807	1.49	1.17	1.0000 
	9	0	4	5943	467	5636	1.27	-1.33	1.0000 
	0	-9	4	6569	427	6218	1.38	-1.73	1.0000 
	9	-1	4	5889	472	5757	-0.7	-1.5	1.0000 
	-1	-9	-4	4473	377	4387	-0.54	1.35	1.0000 
	9	-1	-4	4699	438	4573	-0.72	1.3	1.0000 
	-1	-9	4	5519	408	5443	-0.49	-1.81	1.0000 
	-2	-9	4	2737	321	2717	0.15	0.47	1.0000 
	-2	-9	-4	2516	311	2475	0.3	-0.52	1.0000 
	9	-2	-4	2461	349	2434	0.19	-0.22	1.0000 
	9	-2	4	2613	353	2587	0.17	0.14	1.0000 
	9	-3	-4	335	172	325	0.28	-1.14	1.0000 
	-3	-9	4	306	160	311	0.58	4.33	1.0000 
	9	-3	4	183	143	183	0.16	2.06	1.0000 
	-3	-9	-4	288	151	284	0.71	-4.26	1.0000 
	-4	-9	4	1856	283	1856	0.01	0.08	1.0000 
	-4	-9	-4	1913	286	1914	0.08	-1.11	1.0000 
	9	-4	-4	1669	298	1691	0.18	-0.02	1.0000 
	9	-4	4	1207	281	1223	0.17	0.11	1.0000 
	9	-5	4	2457	394	2657	-1.31	0.17	1.0000 
	-5	-9	4	2124	319	2309	-1.46	-2.79	1.0000 
	-5	-9	-4	2886	349	3102	-1.45	2.35	1.0000 
	9	-5	-4	2463	369	2699	-1.53	-0.25	1.0000 
	-6	-9	4	1314	258	1222	-0.85	0.11	1.0000 
	9	-6	-4	1484	290	1413	-0.87	1.46	1.0000 
	-6	-9	-4	1277	250	1208	-0.74	0.6	1.0000 
	9	-6	4	1609	340	1566	-0.95	-2.85	1.0000 
	7	9	-4	97	109	166	1.9	-0.7	1.0000 
	9	-7	-4	78	148	186	2.43	3.51	1.0000 
	-7	-9	-4	115	114	192	2.06	-0.32	1.0000 
	-7	-9	4	110	127	183	1.9	0.7	1.0000 
	8	9	-4	75	99	167	-2.83	-0.45	1.0000 
	-8	-9	4	127	130	241	-2.83	0.45	1.0000 
	9	-8	-4	2	134	44	-2.92	-1.85	1.0000 
	-8	-9	-4	71	109	165	-3.02	0.5	1.0000 
	9	-9	-4	1746	330	1677	-0.59	-4.49	1.0000 
	9	9	-4	1280	278	1214	-0.83	2.02	1.0000 
	-9	-9	-4	2296	317	2229	-0.83	2.81	1.0000 
	-9	-9	4	2199	333	2115	-0.83	-2.02	1.0000 
	10	9	-4	1530	292	1400	1.1	0.51	1.0000 
	-10	-9	4	1278	250	1159	1.1	-0.51	1.0000 
	-10	-9	-4	1830	272	1634	1.55	0.37	1.0000 
	10	8	-4	83	78	83	0	0.04	1.0000 
	-10	-8	4	30	78	30	0	-0.04	1.0000 
	-10	-8	-4	102	100	117	-0.27	1.29	1.0000 
	-10	-7	-4	140	119	301	-0.82	4.42	1.0000 
	7	-10	-4	105	126	189	0.03	2.94	1.0000 
	-10	-7	4	112	133	190	-0.16	-2.82	1.0000 
	10	7	-4	9	113	29	-0.16	2.82	1.0000 
	10	7	4	107	92	250	-0.82	-4.42	1.0000 
	10	6	4	2395	342	2329	0.32	-1.9	1.0000 
	-10	-6	4	2204	303	2079	0.79	-1.45	1.0000 
	6	-10	-4	2449	315	2311	0.87	0.8	1.0000 
	-10	-6	-4	2235	278	2171	0.32	1.9	1.0000 
	10	6	-4	2133	347	2010	0.79	1.45	1.0000 
	10	5	4	3647	393	3872	1.29	0.67	1.0000 
	-10	-5	4	3317	373	3574	1.44	-0.22	1.0000 
	5	-10	-4	3100	341	3387	1.64	0.52	1.0000 
	10	5	-4	3546	457	3811	1.44	0.22	1.0000 
	4	-10	-4	4036	379	4243	-1.05	-0.36	1.0000 
	10	4	-4	4490	468	4773	-1.38	-0.12	1.0000 
	-10	-4	4	4480	369	4763	-1.38	0.12	1.0000 
	10	4	4	4169	427	4376	-0.98	1	1.0000 
	4	-10	4	3973	351	4178	-1.03	0.59	1.0000 
	-10	-3	4	1662	228	1381	-2.47	3.44	1.0000 
	10	3	4	2739	344	2449	-1.98	3.16	1.0000 
	3	-10	4	1643	232	1403	-2.13	3.7	1.0000 
	3	-10	-4	1609	265	1374	-2.12	-3.77	1.0000 
	10	3	-4	2034	316	1725	-2.47	-3.44	1.0000 
	10	2	-4	280	156	239	-0.79	-0.52	1.0000 
	2	-10	-4	581	174	516	-1.02	0.29	1.0000 
	2	-10	4	284	136	234	-1.12	-0.27	1.0000 
	10	2	4	307	145	269	-0.7	0.4	1.0000 
	10	1	4	739	205	692	0.26	-2.01	1.0000 
	1	-10	4	874	198	874	-0.25	-3.48	1.0000 
	10	1	-4	499	201	467	0.11	2.72	1.0000 
	1	-10	-4	472	180	463	-0.25	3.02	1.0000 
	10	0	-4	1184	283	1305	0.64	1.59	1.0000 
	0	-10	4	1085	241	1209	0.64	-1.82	1.0000 
	0	-10	-4	737	214	827	0.71	1.25	1.0000 
	10	0	4	865	249	957	0.69	-1.14	1.0000 
	10	-1	-4	652	220	641	-0.19	3.14	1.0000 
	-1	-10	4	645	202	623	-0.06	-2.6	1.0000 
	-1	-10	-4	753	202	701	0.3	2.3	1.0000 
	10	-1	4	676	214	680	-0.34	-3.39	1.0000 
	-2	-10	4	416	178	362	-0.85	0.52	1.0000 
	10	-2	-4	471	201	413	-0.98	0.18	1.0000 
	-2	-10	-4	331	159	294	-0.65	-0.44	1.0000 
	10	-2	4	180	139	145	-1.15	-0.68	1.0000 
	-3	-10	-4	2140	295	1829	-2.4	-3.24	1.0000 
	10	-3	4	1625	302	1362	-2.35	3.66	1.0000 
	-3	-10	4	1470	269	1231	-2.24	3.65	1.0000 
	10	-3	-4	1953	317	1709	-1.99	-3.59	1.0000 
	-4	-10	4	3898	399	4137	-1.18	1.08	1.0000 
	-4	-10	-4	4223	395	4473	-1.24	-0.38	1.0000 
	10	-4	-4	3771	436	3962	-0.96	-0.86	1.0000 
	10	-4	4	4361	479	4604	-1.21	0.08	1.0000 
	-5	-10	4	3833	385	4087	1.36	0.08	1.0000 
	10	-5	4	4217	517	4547	1.55	-1.17	1.0000 
	10	-5	-4	3413	448	3659	1.4	-0.1	1.0000 
	-5	-10	-4	3534	413	3789	1.42	-0.09	1.0000 
	-6	-10	4	2321	331	2237	0.44	-2.32	1.0000 
	10	-6	-4	2524	374	2397	0.76	1.16	1.0000 
	10	-6	4	2071	380	1927	0.99	-0.87	1.0000 
	-6	-10	-4	2792	347	2668	0.68	1.39	1.0000 
	-7	-10	-4	127	130	235	-0.25	3.4	1.0000 
	10	-7	4	71	175	129	0.3	-2.42	1.0000 
	10	-7	-4	52	126	131	-0.06	3.59	1.0000 
	-7	-10	4	147	149	294	-0.6	-4.08	1.0000 
	10	-8	-4	72	143	79	-0.4	1.17	1.0000 
	-8	-10	-4	61	64	64	-0.11	0.61	1.0000 
	8	10	-4	88	92	91	-0.17	0.65	1.0000 
	10	-8	4	0	134	-157	-0.04	-0.31	1.0000 
	-8	-10	4	104	93	108	-0.17	-0.65	1.0000 
	9	10	-4	1654	298	1511	1.25	-0.49	1.0000 
	-9	-10	-4	1175	225	1029	1.43	0.61	1.0000 
	10	-9	4	1490	385	1376	1.13	1.23	1.0000 
	-9	-10	4	1810	305	1660	1.25	0.49	1.0000 
	10	10	-4	2683	428	2820	0.85	0.24	1.0000 
	-10	-10	4	2827	390	2967	0.85	-0.24	1.0000 
	10	-10	4	3060	516	3250	1.18	0.68	1.0000 
	-10	-10	-4	2380	352	2539	1.08	-0.09	1.0000 
	10	-11	4	1517	402	1691	-1.47	-0.09	1.0000 
	11	10	-4	1163	253	1321	-1.44	-0.6	1.0000 
	-11	-9	4	771	198	721	-0.51	1.6	1.0000 
	11	9	-4	402	182	365	-0.51	-1.6	1.0000 
	-11	-8	4	163	123	292	2.31	-2.25	1.0000 
	11	8	-4	23	84	-1	2.31	2.25	1.0000 
	11	7	-4	218	125	340	-0.86	3.58	1.0000 
	-11	-7	4	293	140	434	-0.86	-3.58	1.0000 
	11	6	4	734	230	877	1.16	-2.56	1.0000 
	6	-11	-4	786	214	876	1.19	-2.01	1.0000 
	11	6	-4	914	267	1011	1.02	0.19	1.0000 
	-11	-6	4	1353	274	1470	1.02	-0.19	1.0000 
	-11	-5	4	1484	248	1531	-0.37	0.29	1.0000 
	11	5	4	1553	307	1629	-0.62	0.13	1.0000 
	5	-11	-4	1717	282	1699	-0.02	3.03	1.0000 
	11	5	-4	1566	333	1614	-0.37	-0.29	1.0000 
	11	4	-4	2328	379	2231	-0.88	1.64	1.0000 
	4	-11	-4	1893	295	1810	-0.99	2.59	1.0000 
	-11	-4	4	1893	277	1805	-0.88	-1.64	1.0000 
	11	4	4	2383	353	2258	-0.99	-1.1	1.0000 
	4	-11	4	1532	248	1449	-0.9	-1.64	1.0000 
	3	-11	-4	155	128	147	0.65	-1.98	1.0000 
	11	3	4	9	87	4	0.58	0.89	1.0000 
	3	-11	4	263	146	246	0.83	1.88	1.0000 
	11	3	-4	301	149	281	0.46	-0.5	1.0000 
	11	2	4	1567	309	1666	-0.64	2.17	1.0000 
	11	2	-4	1270	317	1354	-0.56	-2.42	1.0000 
	2	-11	4	1327	254	1397	-0.49	1.85	1.0000 
	2	-11	-4	1200	265	1273	-0.55	-1.91	1.0000 
	1	-11	-4	2358	336	2384	-0.05	1.8	1.0000 
	1	-11	4	2263	314	2264	-0.22	-1.8	1.0000 
	11	1	4	2122	362	2156	0.19	-0.58	1.0000 
	11	1	-4	1693	336	1694	-0.05	0.53	1.0000 
	0	-11	4	3562	385	3653	-0.64	-3.05	1.0000 
	11	0	4	3570	444	3627	-0.45	-2.66	1.0000 
	11	0	-4	2901	426	2991	-0.7	2.93	1.0000 
	0	-11	-4	3569	399	3616	-0.4	2.73	1.0000 
	-1	-11	4	1761	306	1775	0.04	-0.68	1.0000 
	11	-1	-4	1657	335	1677	-0.09	2.05	1.0000 
	-1	-11	-4	2509	347	2538	0.13	0.61	1.0000 
	11	-1	4	2131	359	2128	-0.23	-1.65	1.0000 
	-2	-11	4	1371	286	1459	-0.53	2.66	1.0000 
	11	-2	-4	1713	348	1805	-0.58	-1.89	1.0000 
	11	-2	4	1161	288	1238	-0.6	1.88	1.0000 
	-2	-11	-4	1597	305	1699	-0.65	-2.14	1.0000 
	-3	-11	4	434	181	413	0.46	0.71	1.0000 
	11	-3	4	183	142	162	0.87	1.61	1.0000 
	-3	-11	-4	229	133	211	0.51	-0.65	1.0000 
	11	-3	-4	22	137	12	0.64	-2.21	1.0000 
	11	-4	4	1668	354	1587	-0.95	-2.2	1.0000 
	-4	-11	4	2470	346	2318	-1.12	-0.77	1.0000 
	-4	-11	-4	2250	330	2174	-0.81	2.12	1.0000 
	11	-4	-4	2172	374	2081	-0.92	2.09	1.0000 
	11	-5	-4	1168	300	1146	0.02	2.89	1.0000 
	-5	-11	-4	1332	285	1378	-0.41	-0.08	1.0000 
	-5	-11	4	1642	322	1730	-0.66	0.48	1.0000 
	11	-5	4	2051	394	2075	-0.31	-3.24	1.0000 
	-6	-11	-4	804	220	897	1.03	0.31	1.0000 
	11	-6	4	505	265	585	1.31	1.72	1.0000 
	-6	-11	4	1485	295	1670	1.1	-2.2	1.0000 
	11	-6	-4	1214	318	1330	1.18	-0.71	1.0000 
	11	-7	4	16	128	54	-0.64	3	1.0000 
	11	-7	-4	137	161	218	-1.04	-2.09	1.0000 
	-7	-11	4	258	161	414	-0.87	-3.97	1.0000 
	-7	-11	-4	119	118	207	-0.94	3.52	1.0000 
	-8	-11	-4	19	79	-72	2.39	1.63	1.0000 
	11	-8	4	134	186	257	2.37	-2.34	1.0000 
	11	-8	-4	10	107	48	2.27	2.14	1.0000 
	-8	-11	4	35	124	90	2.22	-1.55	1.0000 
	-9	-11	4	393	156	367	-0.31	1.58	1.0000 
	11	-9	4	528	234	529	-0.44	-2.73	1.0000 
	-9	-11	-4	771	158	722	-0.5	-1.76	1.0000 
	-10	-11	-4	854	197	1030	-1.72	-1.58	1.0000 
	12	9	-4	144	108	73	2.25	1.15	1.0000 
	12	8	-4	28	79	-123	1.81	3.05	1.0000 
	-12	-8	4	225	144	390	1.81	-3.05	1.0000 
	12	7	-4	80	101	72	0.31	-0.1	1.0000 
	-12	-7	4	160	99	148	0.31	0.1	1.0000 
	6	-12	-4	15	87	20	0.14	-0.8	1.0000 
	12	6	-4	54	99	71	0.3	-1.1	1.0000 
	-12	-6	4	205	107	239	0.3	1.1	1.0000 
	5	-12	-4	8	99	7	-3.24	-0.24	1.0000 
	-12	-5	4	22	92	87	-3.42	1.11	1.0000 
	12	5	4	35	123	91	-3.18	-0.15	1.0000 
	12	5	-4	29	73	-4	-3.42	-1.11	1.0000 
	12	4	-4	144	114	143	-0.03	0.76	1.0000 
	4	-12	-4	556	176	587	-0.48	0.94	1.0000 
	-12	-4	4	472	129	471	-0.03	-0.76	1.0000 
	12	4	4	317	180	328	-0.25	-0.95	1.0000 
	3	-12	-4	60	126	284	3.25	5.15	1.0000 
	12	3	4	2	93	90	2.62	-4.95	1.0000 
	12	3	-4	0	104	80	3.21	5.09	1.0000 
	3	-12	4	89	130	344	2.89	-5.37	1.0000 
	2	-12	4	685	212	822	1.61	-1.03	1.0000 
	12	2	-4	711	255	851	1.57	1.47	1.0000 
	2	-12	-4	593	207	730	1.69	1.36	1.0000 
	12	2	4	537	219	664	1.61	-1.79	1.0000 
	1	-12	4	292	168	318	0.07	2.28	1.0000 
	12	1	-4	321	190	364	0.01	-2.81	1.0000 
	1	-12	-4	265	150	279	0.18	-1.99	1.0000 
	12	1	4	338	172	377	0.1	2.81	1.0000 
	0	-12	-4	604	184	439	-2.37	-1.5	1.0000 
	12	0	4	875	230	681	-2.31	1.78	1.0000 
	12	0	-4	506	205	351	-2.45	-1.47	1.0000 
	0	-12	4	604	174	437	-2.42	1.85	1.0000 
	-1	-12	-4	394	187	436	0.05	-2.66	1.0000 
	-1	-12	4	346	179	390	0.12	2.98	1.0000 
	12	-1	-4	476	213	513	-0.05	-2.05	1.0000 
	12	-1	4	225	171	238	0.19	2.06	1.0000 
	12	-2	4	346	208	447	1.64	-1.09	1.0000 
	-2	-12	-4	863	249	1034	1.73	1.61	1.0000 
	12	-2	-4	658	272	792	1.58	1.28	1.0000 
	-2	-12	4	1018	258	1180	1.53	-1.43	1.0000 
	-3	-12	4	24	169	197	2.82	-5.46	1.0000 
	12	-3	4	56	165	284	3.33	-5.35	1.0000 
	12	-3	-4	4	156	51	2.94	5.18	1.0000 
	-3	-12	-4	53	140	247	3.15	4.68	1.0000 
	-4	-12	-4	401	153	411	-0.2	0.38	1.0000 
	12	-4	4	338	204	362	-0.46	-1.34	1.0000 
	-4	-12	4	631	202	635	-0.03	-1.66	1.0000 
	12	-4	-4	182	191	208	-0.69	1.48	1.0000 
	12	-5	-4	127	173	214	-2.87	0.32	1.0000 
	-5	-12	4	47	122	119	-3.22	0.7	1.0000 
	12	-5	4	24	109	-142	-3.2	0.81	1.0000 
	-5	-12	-4	27	86	-13	-3.42	-0.6	1.0000 
	12	-6	4	3	131	-43	0.3	1.14	1.0000 
	-6	-12	-4	266	143	284	0.25	-0.39	1.0000 
	12	-6	-4	63	131	81	0.36	-0.94	1.0000 
	-6	-12	4	128	119	170	0.38	1.62	1.0000 
	12	-7	-4	57	135	68	0.01	-2.67	1.0000 
	-7	-12	4	450	152	422	0.62	1.2	1.0000 
	-7	-12	-4	331	128	320	0.22	-0.59	1.0000 
	12	-7	4	192	179	207	-0.16	1.53	1.0000 
	-8	-12	-4	153	136	252	1.85	2.17	1.0000 
	12	-8	-4	27	132	-26	2.82	1.99	1.0000 
	12	-8	4	33	134	-13	2.3	-3.08	1.0000 
	13	6	-4	497	171	558	-0.88	1.05	1.0000 
	6	-13	-4	401	140	448	-0.55	2.74	1.0000 
	13	6	4	290	120	332	-0.8	-0.92	1.0000 
	13	5	-4	239	94	151	-2.14	-1.39	1.0000 
	5	-13	-4	94	97	34	-2.48	-2.81	1.0000 
	13	5	4	307	123	212	-1.98	1.02	1.0000 
	13	4	-4	10	108	-4	-0.43	-2.04	1.0000 
	13	4	4	15	92	-68	-0.59	2.48	1.0000 
	4	-13	-4	12	104	72	-0.9	-3.7	1.0000 
	3	-13	-4	72	144	272	2.17	4.9	1.0000 
	3	-13	4	144	126	404	1.92	-5.08	1.0000 
	13	3	-4	1	99	47	2.19	4.84	1.0000 
	13	3	4	29	116	179	2.48	-4.78	1.0000 
	13	2	-4	118	163	399	2.75	5.46	1.0000 
	2	-13	4	210	167	546	2.6	-5.38	1.0000 
	13	2	4	47	146	245	3.35	-4.85	1.0000 
	2	-13	-4	102	163	349	2.7	5.1	1.0000 
	13	1	-4	662	236	684	-0.15	-1.67	1.0000 
	1	-13	4	789	194	798	0.04	1.75	1.0000 
	13	1	4	874	255	905	-0.18	1.9	1.0000 
	1	-13	-4	1012	239	1013	0.12	-1.63	1.0000 
	0	-13	-4	1149	236	944	-2.49	-4.17	1.0000 
	0	-13	4	559	183	414	-2.48	5.06	1.0000 
	13	0	-4	895	255	723	-2.41	-4.58	1.0000 
	13	0	4	492	194	346	-2.54	4.56	1.0000 
	-1	-13	-4	971	240	996	-0.12	-1.71	1.0000 
	13	-1	-4	426	187	427	0.11	-1.82	1.0000 
	-1	-13	4	452	192	471	-0.17	1.89	1.0000 
	13	-1	4	628	212	639	-0.03	1.61	1.0000 
	13	-2	-4	111	193	370	2.83	5.14	1.0000 
	13	-2	4	106	176	364	2.5	-5.35	1.0000 
	-2	-13	4	186	197	517	2.87	-5.4	1.0000 
	-2	-13	-4	54	172	257	3.1	4.97	1.0000 
	13	-3	-4	12	127	133	2.11	4.96	1.0000 
	13	-3	4	35	144	197	2.07	-5.02	1.0000 
	-3	-13	4	126	177	364	2.29	-4.75	1.0000 
	-3	-13	-4	171	162	438	2.29	4.74	1.0000 
	13	-4	4	202	184	349	-0.84	3.12	1.0000 
	13	-4	-4	36	117	-43	-1.13	-3.83	1.0000 
	-4	-13	4	102	168	154	-0.24	1.81	1.0000 
	-4	-13	-4	258	168	384	-0.66	-2.54	1.0000 
	-5	-13	-4	237	113	147	-2.18	-1.33	1.0000 
	13	-5	4	163	173	93	-2.31	3.14	1.0000 
	-5	-13	4	123	126	69	-1.83	1.31	1.0000 
	13	-5	-4	59	150	11	-2.49	-2.73	1.0000 
	13	-6	-4	181	184	205	-0.52	2.49	1.0000 
	13	-6	4	327	199	367	-0.53	-2.74	1.0000 
	-6	-13	-4	492	179	555	-0.9	1.24	1.0000 
	13	-7	-4	181	157	217	0.35	1.74	1.0000 
	14	5	4	1173	252	1145	0.28	0.11	1.0000 
	5	-14	-4	830	214	831	-0.05	0.39	1.0000 
	4	-14	-4	342	151	284	-0.98	-1.69	1.0000 
	14	4	4	3	105	-16	-0.93	0.73	1.0000 
	3	-14	-4	153	138	225	-1.41	-1.43	1.0000 
	14	3	-4	5	74	-107	-1.37	-0.5	1.0000 
	14	3	4	134	120	177	-0.98	0.84	1.0000 
	14	2	-4	270	141	335	-1.1	1.24	1.0000 
	14	2	4	2	111	-130	-0.87	-0.07	1.0000 
	2	-14	4	97	88	140	-1.14	-1.37	1.0000 
	2	-14	-4	231	133	280	-1.08	0.53	1.0000 
	14	1	4	721	213	697	-0.39	-0.79	1.0000 
	1	-14	-4	1041	263	980	-0.74	0.81	1.0000 
	1	-14	4	1239	248	1178	-0.69	-0.81	1.0000 
	14	1	-4	877	256	839	-0.58	1.15	1.0000 
	0	-14	-4	1392	291	1364	0.2	0.49	1.0000 
	0	-14	4	1326	261	1313	0.17	0.42	1.0000 
	14	0	-4	910	279	891	0.22	-0.03	1.0000 
	14	0	4	1296	329	1278	0.15	-0.12	1.0000 
	14	-1	4	953	265	884	-0.88	-0.93	1.0000 
	-1	-14	4	901	233	876	-0.4	-0.93	1.0000 
	-1	-14	-4	798	207	766	-0.51	1.08	1.0000 
	14	-1	-4	548	201	517	-0.52	0.66	1.0000 
	-2	-14	4	350	185	415	-0.95	-1.22	1.0000 
	14	-2	4	49	149	80	-1.19	-1.34	1.0000 
	-2	-14	-4	345	141	398	-0.98	0.33	1.0000 
	14	-2	-4	3	114	-17	-0.95	0.68	1.0000 
	14	-3	-4	12	138	33	-1.35	-1.32	1.0000 
	-3	-14	4	297	151	370	-1.22	0.7	1.0000 
	2	-15	4	50	110	5	-3.06	1.59	1.0000 
	-1	-1	5	53369	2757	86880	42.54	0.25	1.0000 
	-1	-1	-5	54052	3033	87476	42.08	4.23	1.0000 
	1	1	-5	55348	3122	89400	42.54	-0.25	1.0000 
	-1	1	-5	54149	3008	88390	-43.11	0.39	1.0000 
	1	-1	5	53268	2720	87263	-43.11	-0.39	1.0000 
	1	-1	-5	50732	3028	84017	-43.16	-4.15	1.0000 
	1	1	-5	51978	2996	85103	42.54	-0.25	1.0000 
	1	-1	-5	56167	3076	90974	-43.16	-4.15	1.0000 
	1	-2	-5	33047	845	24877	-16.3	2.88	1.0000 
	1	-2	5	31606	763	23706	-16.24	-3.97	1.0000 
	2	1	-5	29761	908	22091	15.8	-3.9	1.0000 
	-2	-1	-5	29435	882	21816	15.82	-2.55	1.0000 
	-2	-1	5	28840	803	21298	15.8	3.9	1.0000 
	1	-2	-5	31468	896	23509	-16.3	2.88	1.0000 
	-1	-2	5	30663	817	22816	15.92	3.88	1.0000 
	-1	-2	-5	31896	912	23993	15.72	-2.5	1.0000 
	1	2	-5	30982	836	23091	15.92	-3.88	1.0000 
	2	-1	-5	30823	901	22930	-16.36	3.01	1.0000 
	1	2	5	32130	849	24196	15.72	2.5	1.0000 
	2	-2	-5	12261	518	13354	-3.83	11.91	1.0000 
	-2	-2	-5	10835	546	12762	4.45	-9.15	1.0000 
	2	2	5	10361	494	12244	4.45	9.15	1.0000 
	2	-2	-5	11294	551	12331	-3.83	11.91	1.0000 
	2	2	-5	9453	552	11048	3.66	-9.79	1.0000 
	2	-2	5	11250	420	12063	-3.16	-12.02	1.0000 
	-2	-2	5	9925	493	11562	3.66	9.79	1.0000 
	-2	-2	-5	10878	474	12810	4.45	-9.15	1.0000 
	2	-3	5	48572	1507	46975	-2.63	-2.56	1.0000 
	2	-3	-5	44680	1701	42848	-3.11	2.51	1.0000 
	2	-3	-5	49998	1736	48060	-3.11	2.51	1.0000 
	-3	-2	-5	49306	1724	47714	2.27	-2.61	1.0000 
	-3	-2	-5	50640	1534	49026	2.27	-2.61	1.0000 
	-3	-2	5	46578	1576	45059	2.25	2.15	1.0000 
	3	2	-5	48479	1786	46929	2.25	-2.15	1.0000 
	3	2	5	49609	1728	48012	2.27	2.61	1.0000 
	-3	-1	5	55615	1919	55801	0.29	0.85	1.0000 
	1	-3	-5	57412	2076	58267	-0.97	4.15	1.0000 
	1	-3	-5	58967	2116	59834	-0.97	4.15	1.0000 
	3	1	-5	59073	2176	59265	0.29	-0.85	1.0000 
	-3	-1	-5	58144	1856	58558	0.66	-3.47	1.0000 
	1	-3	5	57974	1879	58578	-0.82	-0.28	1.0000 
	-3	-1	-5	58164	2111	58578	0.66	-3.47	1.0000 
	3	1	5	59609	2139	60029	0.66	3.47	1.0000 
	3	-1	-5	55947	2130	56728	-0.9	3.78	1.0000 
	-1	-3	5	57129	1897	57432	0.44	0.5	1.0000 
	1	3	5	58905	2058	59277	0.61	3.91	1.0000 
	1	3	-5	57384	2008	57688	0.44	-0.5	1.0000 
	-1	-3	-5	59024	2095	59396	0.61	-3.91	1.0000 
	3	-2	-5	49957	1759	48180	-2.91	3.02	1.0000 
	-2	-3	-5	50190	1731	48350	2.63	-2.35	1.0000 
	2	3	5	48794	1699	46980	2.63	2.35	1.0000 
	2	3	-5	47202	1802	45988	1.74	-2.51	1.0000 
	-2	-3	-5	48471	1572	46663	2.63	-2.35	1.0000 
	3	-2	5	49984	1486	48149	-2.91	-1.99	1.0000 
	-2	-3	5	47240	1584	46026	1.74	2.51	1.0000 
	-3	-3	5	50505	1608	47666	-4.08	4.18	1.0000 
	3	-3	5	49617	1507	47890	2.84	-3	1.0000 
	-3	-3	-5	49839	1740	47134	-4.06	-0.77	1.0000 
	-3	-3	-5	50632	1572	47905	-4.06	-0.77	1.0000 
	3	3	5	47294	1726	44660	-4.06	0.77	1.0000 
	3	-3	-5	49410	1756	47442	2.97	-0.28	1.0000 
	3	3	-5	49212	1816	46410	-4.08	-4.18	1.0000 
	3	-4	-5	13583	689	16496	7.66	3.45	1.0000 
	3	-4	5	12779	586	15774	7.94	-4.93	1.0000 
	4	3	-5	12966	758	16163	-9.08	-5.9	1.0000 
	-4	-3	-5	11759	612	14836	-9.14	-4.45	1.0000 
	-4	-3	5	12667	664	15828	-9.08	5.9	1.0000 
	4	3	5	12787	693	15990	-9.14	4.45	1.0000 
	-4	-2	5	14076	592	14357	0.98	3.82	1.0000 
	-4	-2	-5	14105	534	14313	0.77	-3.65	1.0000 
	4	2	5	14155	630	14364	0.77	3.65	1.0000 
	2	-4	5	13106	532	14137	-2.72	-2.62	1.0000 
	2	-4	-5	12487	633	13382	-2.45	2.09	1.0000 
	4	2	-5	12851	663	13118	0.98	-3.82	1.0000 
	4	1	-5	13518	646	13928	-1.01	-2.59	1.0000 
	1	-4	5	13081	522	13230	0.51	-2.13	1.0000 
	4	1	5	12584	609	13111	-1.2	4.7	1.0000 
	1	-4	-5	13496	611	13667	0.57	2.92	1.0000 
	-4	-1	5	12313	551	12704	-1.01	2.59	1.0000 
	-4	-1	-5	13021	482	13558	-1.2	-4.7	1.0000 
	4	-1	-5	12839	603	13012	0.6	3.33	1.0000 
	-1	-4	-5	11789	576	12207	-1.01	-3.87	1.0000 
	-1	-4	5	12365	529	12879	-1.29	3.46	1.0000 
	4	-2	-5	14117	653	15094	-2.48	2.55	1.0000 
	-2	-4	-5	14188	626	14424	0.84	-3.42	1.0000 
	-2	-4	-5	13069	574	13295	0.84	-3.42	1.0000 
	-2	-4	5	13827	586	14058	0.85	4.13	1.0000 
	2	4	-5	12541	662	12759	0.85	-4.13	1.0000 
	2	4	5	13700	564	13932	0.84	3.42	1.0000 
	4	-3	-5	12336	709	15154	7.76	3.42	1.0000 
	3	4	5	13144	669	16324	-8.97	4.72	1.0000 
	-3	-4	-5	12248	645	15321	-8.97	-4.72	1.0000 
	-3	-4	5	12459	665	15681	-9.31	5.85	1.0000 
	-3	-4	-5	13657	713	16896	-8.97	-4.72	1.0000 
	4	-3	5	13636	560	16636	7.72	-4.85	1.0000 
	-4	-4	-5	8746	336	5941	-10.87	-3.12	1.0000 
	4	-4	-5	9954	390	6960	10.91	-0.09	1.0000 
	-4	-4	-5	8968	378	6124	-10.87	-3.12	1.0000 
	-4	-4	5	10254	388	7031	-11.54	2.16	1.0000 
	4	4	-5	9248	420	6202	-11.54	-2.16	1.0000 
	4	4	5	9915	368	6912	-10.87	3.12	1.0000 
	4	-4	5	9350	289	6295	11.58	0.36	1.0000 
	4	-5	5	99	55	93	-0.23	0.89	1.0000 
	5	4	5	48	62	44	0.27	-1.24	1.0000 
	-5	-4	5	37	98	31	0.36	-1.09	1.0000 
	5	4	-5	64	88	57	0.36	1.09	1.0000 
	-5	-4	-5	84	81	79	0.27	1.24	1.0000 
	4	-5	-5	32	63	28	-0.13	-1.96	1.0000 
	3	-5	5	1181	132	1196	-0.09	-2.86	1.0000 
	-5	-3	5	920	173	1039	-0.96	2.96	1.0000 
	5	3	5	804	153	901	-0.87	2.58	1.0000 
	3	-5	-5	1071	182	1098	0.07	2.75	1.0000 
	-5	-3	-5	941	135	1046	-0.87	-2.58	1.0000 
	5	3	-5	1221	213	1361	-0.96	-2.96	1.0000 
	-5	-2	5	337	129	502	-4.57	6.08	1.0000 
	2	-5	5	450	97	383	2.44	-2.93	1.0000 
	-5	-2	-5	298	81	412	-4.41	-5.65	1.0000 
	2	-5	-5	383	118	392	3.11	4.45	1.0000 
	5	2	5	297	118	410	-4.41	5.65	1.0000 
	5	2	-5	301	135	451	-4.57	-6.08	1.0000 
	5	1	5	743	96	206	-8.87	2.62	1.0000 
	1	-5	5	453	65	84	8.08	0.29	1.0000 
	1	-5	-5	622	85	154	8.5	1.64	1.0000 
	-5	-1	-5	815	55	246	-8.87	-2.62	1.0000 
	-5	-1	5	578	90	121	-8.76	1.69	1.0000 
	5	1	-5	1146	132	438	-8.76	-1.69	1.0000 
	5	-1	-5	839	105	276	8.31	0.92	1.0000 
	-1	-5	-5	762	99	220	-8.85	-2.81	1.0000 
	-1	-5	-5	730	98	202	-8.85	-2.81	1.0000 
	-1	-5	5	612	86	130	-8.94	1.32	1.0000 
	-2	-5	-5	152	97	246	-4.73	-6.66	1.0000 
	-2	-5	5	408	123	492	-3.97	4.93	1.0000 
	-2	-5	-5	124	92	187	-4.73	-6.66	1.0000 
	5	-2	-5	610	133	550	2.72	3.27	1.0000 
	3	5	-5	747	171	821	-0.65	-2.59	1.0000 
	-3	-5	-5	836	159	949	-0.9	-3.22	1.0000 
	3	5	5	992	126	1116	-0.9	3.22	1.0000 
	-3	-5	5	891	166	973	-0.65	2.59	1.0000 
	5	-3	-5	898	161	906	-0.08	2.56	1.0000 
	-3	-5	-5	810	152	921	-0.9	-3.22	1.0000 
	-4	-5	5	87	102	85	0.12	-0.55	1.0000 
	4	5	-5	1	69	-86	0.12	0.55	1.0000 
	-4	-5	-5	6	74	-44	0.4	1.59	1.0000 
	5	-4	-5	7	68	3	-0.16	-1.37	1.0000 
	4	5	5	67	44	60	0.4	-1.59	1.0000 
	-4	-5	-5	22	71	16	0.4	1.59	1.0000 
	5	-5	5	140	61	104	1.23	-0.73	1.0000 
	-5	-5	-5	67	79	44	-1.07	0.38	1.0000 
	-5	-5	5	128	109	102	-1.13	1.13	1.0000 
	5	5	5	81	64	55	-1.07	-0.38	1.0000 
	5	-5	-5	32	76	14	1.36	-0.84	1.0000 
	5	5	-5	211	119	178	-1.13	-1.13	1.0000 
	6	5	5	6	48	-95	-1.61	-0.36	1.0000 
	5	-6	-5	5	73	-34	1.21	0.84	1.0000 
	-6	-5	5	27	109	61	-1.74	0.24	1.0000 
	6	5	-5	0	100	5	-1.74	-0.24	1.0000 
	-6	-5	-5	6	77	-22	-1.61	0.36	1.0000 
	5	-6	5	5	54	-24	1.38	-0.45	1.0000 
	6	4	-5	2240	260	1744	3.71	0.25	1.0000 
	4	-6	5	2296	168	1725	-4.18	-1.11	1.0000 
	6	4	5	2593	219	2069	3.49	-2.13	1.0000 
	-6	-4	5	2495	239	1970	3.71	-0.25	1.0000 
	-6	-4	-5	2234	190	1749	3.49	2.13	1.0000 
	4	-6	-5	2724	217	2075	-4.38	0.76	1.0000 
	6	3	-5	10595	670	11528	2.92	0.61	1.0000 
	3	-6	5	11152	527	12148	-3.13	0.69	1.0000 
	-6	-3	5	10917	580	11864	2.92	-0.61	1.0000 
	6	3	5	11430	636	12406	2.96	-0.37	1.0000 
	-6	-3	-5	12048	530	13050	2.96	0.37	1.0000 
	3	-6	-5	10639	616	11645	-3.23	-0.62	1.0000 
	2	-6	5	9370	456	9955	1.99	-0.07	1.0000 
	6	2	-5	8443	559	9074	-2.31	-0.77	1.0000 
	-6	-2	5	8528	481	9162	-2.31	0.77	1.0000 
	2	-6	-5	8615	507	9275	2.27	0.83	1.0000 
	6	2	5	8993	536	9621	-2.27	1.26	1.0000 
	-6	-2	-5	9208	415	9844	-2.27	-1.26	1.0000 
	1	-6	5	760	116	482	3.72	-0.49	1.0000 
	6	1	5	734	139	460	-3.85	-0.06	1.0000 
	-6	-1	-5	615	74	367	-3.85	0.06	1.0000 
	6	1	-5	718	142	454	-3.77	-0.05	1.0000 
	1	-6	-5	489	109	259	3.78	1.97	1.0000 
	-6	-1	5	571	110	339	-3.77	0.05	1.0000 
	6	-1	5	411	116	212	3.64	-1.34	1.0000 
	-1	-6	5	561	113	306	-4.07	-0.72	1.0000 
	6	-1	-5	709	134	427	3.83	1.22	1.0000 
	-1	-6	-5	616	116	385	-3.65	-0.36	1.0000 
	-1	-6	-5	379	105	203	-3.65	-0.36	1.0000 
	-2	-6	-5	7831	474	8412	-2.27	-1.58	1.0000 
	-2	-6	5	8504	481	9120	-2.22	0.32	1.0000 
	-2	-6	-5	8960	492	9582	-2.27	-1.58	1.0000 
	6	-2	-5	9590	556	10244	2.18	0.22	1.0000 
	-3	-6	5	11292	588	12300	3.04	-0.87	1.0000 
	-3	-6	-5	11329	585	12312	3.02	0.1	1.0000 
	3	6	5	10869	558	11833	3.02	-0.1	1.0000 
	6	-3	-5	12214	666	13276	-3.18	-0.47	1.0000 
	-3	-6	-5	9660	578	10570	3.02	0.1	1.0000 
	6	-4	-5	2213	225	1658	-4.19	0.54	1.0000 
	-4	-6	-5	2523	222	1993	3.62	1.4	1.0000 
	4	6	5	2196	176	1704	3.62	-1.4	1.0000 
	4	6	-5	2120	250	1647	3.58	0.9	1.0000 
	-4	-6	-5	1770	199	1331	3.62	1.4	1.0000 
	-4	-6	5	2785	251	2239	3.58	-0.9	1.0000 
	-5	-6	-5	6	70	-71	-1.62	-0.05	1.0000 
	-5	-6	5	95	123	156	-1.83	-0.09	1.0000 
	5	6	5	71	65	118	-1.62	0.05	1.0000 
	6	-5	-5	42	91	71	1.27	0.42	1.0000 
	5	6	-5	81	110	138	-1.83	0.09	1.0000 
	6	-6	-5	3190	274	2575	3.84	0.04	1.0000 
	6	6	5	3340	252	2789	-3.34	0.14	1.0000 
	6	6	-5	2901	303	2354	-3.52	0.84	1.0000 
	-6	-6	5	2825	284	2285	-3.52	-0.84	1.0000 
	-6	-6	-5	3283	259	2737	-3.34	-0.14	1.0000 
	7	6	5	4421	378	4627	-0.97	0.56	1.0000 
	7	6	-5	5522	475	5718	-0.85	-0.3	1.0000 
	-7	-6	-5	4811	357	5026	-0.97	-0.56	1.0000 
	-7	-6	5	5404	419	5598	-0.85	0.3	1.0000 
	6	-7	-5	4716	403	4892	0.95	1.29	1.0000 
	5	-7	-5	15	86	79	-3.32	1.73	1.0000 
	-7	-5	5	22	94	-16	3.04	-0.81	1.0000 
	5	-7	5	52	80	145	-3.29	-0.88	1.0000 
	-7	-5	-5	18	82	81	3.21	-0.02	1.0000 
	7	5	-5	22	88	-37	3.04	0.81	1.0000 
	7	5	5	23	59	-49	3.21	0.02	1.0000 
	4	-7	5	10618	547	11790	-3.81	-1.86	1.0000 
	7	4	-5	11910	734	13164	3.66	-1.08	1.0000 
	4	-7	-5	9774	639	10967	-4.04	2.18	1.0000 
	-7	-4	5	10029	598	11182	3.66	1.08	1.0000 
	-7	-4	-5	10323	549	11578	3.96	-0.74	1.0000 
	7	4	5	11352	678	12667	3.96	0.74	1.0000 
	7	3	-5	35123	1539	34797	0.58	0.02	1.0000 
	-7	-3	5	33576	1318	33257	0.58	-0.02	1.0000 
	3	-7	-5	35196	1431	34965	-0.41	0	1.0000 
	3	-7	5	36821	1285	36835	0.01	0.29	1.0000 
	7	3	5	33611	1470	33231	0.76	0.92	1.0000 
	-7	-3	-5	36927	1254	36529	0.76	-0.92	1.0000 
	2	-7	-5	42947	1616	41444	2.48	-0.53	1.0000 
	7	2	5	41466	1688	40528	-1.49	-1.05	1.0000 
	7	2	-5	42116	1732	41148	-1.51	1.33	1.0000 
	-7	-2	-5	42828	1404	41875	-1.49	1.05	1.0000 
	-7	-2	5	38772	1474	37843	-1.51	-1.33	1.0000 
	2	-7	5	43913	1470	42272	2.68	0.51	1.0000 
	7	1	5	8970	532	8409	1.93	-1.07	1.0000 
	1	-7	5	9385	464	8819	-1.91	-1.09	1.0000 
	7	1	-5	8980	553	8399	2.1	-0.16	1.0000 
	1	-7	-5	9940	501	9346	-1.94	1.07	1.0000 
	-7	-1	-5	9394	381	8820	1.93	1.07	1.0000 
	7	-1	5	9556	554	8952	-1.99	-1.52	1.0000 
	7	-1	-5	9794	564	9208	-1.95	0.79	1.0000 
	-1	-7	-5	8800	482	8200	2.13	0.58	1.0000 
	-1	-7	5	8827	470	8252	2.04	-0.57	1.0000 
	-1	-7	-5	9562	487	8936	2.13	0.58	1.0000 
	-2	-7	-5	41258	1567	40396	-1.36	1.12	1.0000 
	-2	-7	5	40573	1496	39520	-1.69	-1.22	1.0000 
	7	-2	-5	44252	1709	42686	2.55	-0.58	1.0000 
	-2	-7	-5	39622	1499	38778	-1.36	1.12	1.0000 
	7	-2	5	42418	1712	40907	2.5	0.46	1.0000 
	-3	-7	5	36601	1348	36361	0.43	0.22	1.0000 
	-3	-7	-5	36328	1357	35977	0.66	-0.56	1.0000 
	7	-3	-5	33547	1504	33354	-0.33	0.29	1.0000 
	7	-4	-5	10107	672	11280	-3.9	1.85	1.0000 
	-4	-7	5	11590	642	12869	3.81	0.79	1.0000 
	4	7	5	11536	609	12791	3.74	0.85	1.0000 
	-4	-7	-5	10584	608	11788	3.74	-0.85	1.0000 
	-4	-7	-5	10153	604	11333	3.74	-0.85	1.0000 
	5	7	5	18	59	76	3.14	-0.4	1.0000 
	7	-5	-5	29	110	106	-3.28	1.41	1.0000 
	-5	-7	5	21	90	-79	3	-0.42	1.0000 
	-5	-7	-5	23	78	-27	3.14	0.4	1.0000 
	5	7	-5	11	115	57	3	0.42	1.0000 
	6	7	-5	5120	464	5319	-0.88	-0.48	1.0000 
	-6	-7	-5	5688	407	5938	-1.06	-0.47	1.0000 
	6	7	5	5524	397	5771	-1.06	0.47	1.0000 
	7	-6	-5	5599	459	5781	0.9	1.13	1.0000 
	-6	-7	5	5221	421	5422	-0.88	0.48	1.0000 
	-7	-7	-5	9507	487	7908	-5.75	-0.13	1.0000 
	-7	-7	5	9626	522	8025	-5.74	-0.1	1.0000 
	7	7	5	10091	518	8441	-5.75	0.13	1.0000 
	7	7	-5	9090	578	7536	-5.74	0.1	1.0000 
	7	-7	-5	8232	532	7052	4.44	-0.86	1.0000 
	7	-8	-5	9137	635	9245	0.39	-0.11	1.0000 
	-8	-7	5	9486	616	10217	-2.44	-0.33	1.0000 
	-8	-7	-5	8880	558	9527	-2.36	-0.96	1.0000 
	8	7	-5	9756	706	10497	-2.44	0.33	1.0000 
	-8	-6	5	4420	376	4416	0.03	0.58	1.0000 
	8	6	-5	4905	454	4901	0.03	-0.58	1.0000 
	6	-8	-5	4377	405	4546	-0.65	1.78	1.0000 
	8	6	5	5224	404	5155	-0.31	0.12	1.0000 
	-8	-6	-5	4985	357	4918	-0.31	-0.12	1.0000 
	8	5	5	88	69	104	0.51	-0.2	1.0000 
	5	-8	-5	29	94	30	-0.05	-0.2	1.0000 
	5	-8	-5	0	89	-23	-0.05	-0.2	1.0000 
	-8	-5	-5	1	76	0	0.51	0.2	1.0000 
	-8	-5	5	90	122	104	0.35	-0.64	1.0000 
	5	-8	5	209	91	197	0.27	0.11	1.0000 
	8	5	-5	79	117	92	0.35	0.64	1.0000 
	-8	-4	5	8701	526	8366	1.33	1.37	1.0000 
	8	4	5	10500	618	10081	1.51	1.45	1.0000 
	4	-8	5	10324	502	10119	-0.66	-0.26	1.0000 
	8	4	-5	11232	680	10851	1.33	-1.37	1.0000 
	-8	-4	-5	10169	490	9757	1.51	-1.45	1.0000 
	4	-8	-5	8935	558	8661	-0.97	0.05	1.0000 
	8	3	5	24606	1161	25478	1.81	-0.39	1.0000 
	3	-8	-5	22612	1076	23622	-2.19	0.35	1.0000 
	-8	-3	-5	24411	945	25280	1.81	0.39	1.0000 
	-8	-3	5	23850	1024	24738	1.91	0	1.0000 
	8	3	-5	23032	1195	23905	1.91	0	1.0000 
	3	-8	5	22110	973	22968	-1.92	0.05	1.0000 
	2	-8	-5	26154	1101	25880	-0.48	-1.17	1.0000 
	8	2	5	25782	1187	25986	-0.28	-1.57	1.0000 
	2	-8	5	24480	1000	24314	-0.23	1.79	1.0000 
	-8	-2	-5	24790	928	24990	-0.28	1.57	1.0000 
	-8	-2	5	23837	1011	24034	-0.28	-1.62	1.0000 
	8	2	-5	24437	1205	24636	-0.28	1.62	1.0000 
	1	-8	-5	5563	387	5878	-1.28	-1.03	1.0000 
	8	1	5	5767	455	5960	0.94	-0.95	1.0000 
	1	-8	5	5651	390	5954	-1.19	1.27	1.0000 
	8	1	-5	4795	441	4957	0.84	0.61	1.0000 
	1	-8	-5	5878	423	6201	-1.28	-1.03	1.0000 
	8	-1	-5	4804	434	5126	-1.4	-1.17	1.0000 
	8	-1	5	4985	438	5270	-1.2	1.17	1.0000 
	-1	-8	-5	5321	369	5477	0.78	0.68	1.0000 
	-1	-8	5	5350	388	5560	1.03	-0.82	1.0000 
	-1	-8	-5	4776	382	4924	0.78	0.68	1.0000 
	-2	-8	5	22279	983	22463	-0.24	-1.89	1.0000 
	8	-2	5	23944	1141	23724	-0.37	1.57	1.0000 
	8	-2	-5	23549	1131	23276	-0.49	-1.49	1.0000 
	-2	-8	-5	23082	996	23302	-0.38	1.24	1.0000 
	-2	-8	-5	22412	997	22629	-0.38	1.24	1.0000 
	-3	-8	-5	23370	1056	24161	1.71	0.04	1.0000 
	8	-3	-5	21553	1163	22489	-2.1	0.1	1.0000 
	-3	-8	5	25999	1073	26923	1.88	-0.3	1.0000 
	8	-3	5	24737	1225	25705	-2.02	-0.26	1.0000 
	-3	-8	-5	23617	1061	24412	1.71	0.04	1.0000 
	-4	-8	-5	10073	541	9699	1.35	-1.09	1.0000 
	8	-4	-5	10150	643	9901	-0.83	0.07	1.0000 
	-4	-8	-5	11020	586	10628	1.35	-1.09	1.0000 
	-4	-8	5	9878	566	9501	1.43	1.61	1.0000 
	-5	-8	-5	1	100	-30	0.48	0.62	1.0000 
	-5	-8	5	0	107	-29	0.29	-0.3	1.0000 
	8	-5	-5	124	124	123	0.03	-0.1	1.0000 
	6	8	-5	4538	429	4474	-0.29	-0.34	1.0000 
	-6	-8	5	4299	383	4237	-0.29	0.34	1.0000 
	8	-6	-5	4185	411	4348	-0.64	1.71	1.0000 
	-6	-8	-5	4794	381	4768	-0.07	-0.6	1.0000 
	-7	-8	-5	9906	606	10600	-2.36	-0.58	1.0000 
	8	-7	-5	9974	672	10058	0.3	-0.12	1.0000 
	-7	-8	5	8818	609	9521	-2.47	0.05	1.0000 
	7	8	-5	8833	685	9537	-2.47	-0.05	1.0000 
	8	8	-5	11004	762	10735	-0.86	-0.03	1.0000 
	-8	-8	-5	12319	658	11999	-0.92	-0.56	1.0000 
	8	-8	-5	11495	753	11566	-0.3	-0.85	1.0000 
	-8	-8	5	11898	688	11618	-0.86	0.03	1.0000 
	-9	-8	5	5296	441	5327	-0.08	0.63	1.0000 
	-9	-8	-5	5410	417	5468	-0.24	-0.29	1.0000 
	9	8	-5	4919	500	4948	-0.08	-0.63	1.0000 
	-9	-7	5	4729	421	4966	1.13	-0.16	1.0000 
	-9	-7	-5	5307	400	5494	0.87	-0.22	1.0000 
	9	7	-5	4183	467	4406	1.13	0.16	1.0000 
	-9	-6	-5	3808	305	3705	0.61	-0.61	1.0000 
	9	6	5	3587	342	3487	0.61	0.61	1.0000 
	-9	-6	5	2866	349	2762	0.74	1.08	1.0000 
	6	-9	-5	3888	357	3602	-1.52	0.74	1.0000 
	9	6	-5	3862	451	3741	0.74	-1.08	1.0000 
	9	5	5	975	201	740	-2.7	0.65	1.0000 
	9	5	-5	1298	255	1020	-2.77	-1.13	1.0000 
	5	-9	-5	1260	215	987	2.73	-0.11	1.0000 
	-9	-5	5	959	182	722	-2.77	1.13	1.0000 
	-9	-5	-5	1150	168	893	-2.7	-0.65	1.0000 
	4	-9	-5	802	174	635	2.51	-1.55	1.0000 
	4	-9	5	631	150	460	2.96	1.82	1.0000 
	-9	-4	5	832	184	636	-2.56	0.39	1.0000 
	9	4	-5	682	190	506	-2.56	-0.39	1.0000 
	-9	-4	-5	838	147	636	-2.55	-0.06	1.0000 
	9	4	5	1119	210	884	-2.55	0.06	1.0000 
	3	-9	-5	4764	358	4341	-2.07	-0.31	1.0000 
	9	3	-5	4736	433	4510	1.22	0.77	1.0000 
	3	-9	5	4431	323	4050	-1.89	0.63	1.0000 
	-9	-3	5	4530	348	4309	1.22	-0.77	1.0000 
	9	3	5	3753	366	3572	1.22	-1.56	1.0000 
	9	2	-5	4840	477	5133	1.14	2.04	1.0000 
	2	-9	5	4868	387	5463	-2.82	0.4	1.0000 
	9	2	5	6263	502	6589	1.17	-1.64	1.0000 
	2	-9	-5	5332	415	5966	-2.88	-0.48	1.0000 
	2	-9	-5	4697	419	5294	-2.88	-0.48	1.0000 
	1	-9	-5	1336	213	1450	1.03	0.01	1.0000 
	1	-9	-5	1644	261	1770	1.03	0.01	1.0000 
	9	1	-5	907	258	1076	-1.84	-0.23	1.0000 
	1	-9	5	1329	234	1467	1.18	-0.49	1.0000 
	9	1	5	1123	258	1296	-1.78	1.07	1.0000 
	9	-1	-5	726	225	818	1.05	0.51	1.0000 
	-1	-9	-5	1465	267	1689	-1.93	-0.32	1.0000 
	-1	-9	5	1396	254	1589	-1.78	0.96	1.0000 
	9	-1	5	1473	280	1602	1.09	-0.15	1.0000 
	9	-2	-5	4883	478	5484	-2.83	-0.28	1.0000 
	-2	-9	-5	6038	450	6337	1.03	1.95	1.0000 
	9	-2	5	4808	478	5433	-2.97	0.38	1.0000 
	-2	-9	5	5172	424	5483	1.2	-1.85	1.0000 
	9	-3	5	4985	435	4548	-2.12	0	1.0000 
	-3	-9	5	4207	375	4012	1.19	-1.2	1.0000 
	9	-3	-5	4497	415	4126	-1.81	-0.82	1.0000 
	-3	-9	-5	4670	377	4454	1.24	1.18	1.0000 
	9	-4	5	806	238	625	2.67	1.46	1.0000 
	-4	-9	-5	750	175	569	-2.48	-0.31	1.0000 
	-4	-9	5	729	196	534	-2.72	0.27	1.0000 
	9	-4	-5	874	210	691	2.72	-1.84	1.0000 
	-5	-9	-5	1526	240	1233	-2.68	-1.19	1.0000 
	9	-5	-5	909	221	675	2.79	-0.2	1.0000 
	-5	-9	5	1379	243	1093	-2.73	0.63	1.0000 
	9	-5	5	1685	312	1341	2.96	0.3	1.0000 
	9	-6	-5	4021	402	3762	-1.34	0.84	1.0000 
	-6	-9	-5	3671	383	3550	0.78	-1.25	1.0000 
	-6	-9	5	3839	405	3753	0.51	0.55	1.0000 
	9	-7	-5	4240	458	4628	-1.93	0.28	1.0000 
	-7	-9	5	4185	402	4389	1.07	0.25	1.0000 
	7	9	-5	4052	433	4253	1.07	-0.25	1.0000 
	-7	-9	-5	4187	387	4369	0.92	0.13	1.0000 
	9	-8	-5	4981	478	4998	0.12	0.41	1.0000 
	-8	-9	-5	4803	403	4857	-0.27	0.15	1.0000 
	-8	-9	5	4763	432	4776	0.02	0.83	1.0000 
	8	9	-5	4654	462	4667	0.02	-0.83	1.0000 
	-9	-9	5	1185	242	1182	-0.1	-0.56	1.0000 
	-9	-9	-5	1278	256	1292	0.09	0.35	1.0000 
	9	9	-5	1475	313	1472	-0.1	0.56	1.0000 
	-10	-9	5	112	95	214	1.28	-2.46	1.0000 
	10	9	-5	17	66	-121	1.28	2.46	1.0000 
	-10	-9	-5	25	75	55	1.58	0.61	1.0000 
	-10	-8	5	2	65	-53	-0.69	-0.46	1.0000 
	8	-10	-5	4	113	1	0.43	-0.81	1.0000 
	10	8	-5	137	94	119	-0.69	0.46	1.0000 
	-10	-8	-5	116	92	111	-0.65	1.03	1.0000 
	10	7	-5	17	89	20	0.25	0.04	1.0000 
	7	-10	-5	79	91	90	-0.27	-0.46	1.0000 
	-10	-7	5	93	111	100	0.25	-0.04	1.0000 
	-10	-6	5	121	121	122	0.03	0.89	1.0000 
	10	6	5	28	76	29	-0.05	0.69	1.0000 
	6	-10	-5	1	91	-12	-0.4	-0.68	1.0000 
	10	6	-5	179	117	181	0.03	-0.89	1.0000 
	-10	-5	5	218	146	282	-1.27	0.98	1.0000 
	10	5	5	199	126	265	-1.42	0.46	1.0000 
	10	5	-5	123	113	172	-1.27	-0.98	1.0000 
	5	-10	-5	79	114	120	1.33	0.69	1.0000 
	10	4	5	167	124	181	-0.35	-0.75	1.0000 
	4	-10	-5	288	125	297	0.17	-0.03	1.0000 
	-10	-4	5	112	101	123	-0.35	-0.38	1.0000 
	4	-10	5	0	81	-84	0.14	-0.26	1.0000 
	10	4	-5	1	122	-1	-0.35	0.38	1.0000 
	-10	-3	5	261	119	244	-0.34	0.3	1.0000 
	3	-10	-5	482	173	446	0.58	0.25	1.0000 
	10	3	-5	244	162	228	-0.34	-0.3	1.0000 
	3	-10	5	467	159	425	0.66	-0.13	1.0000 
	10	3	5	324	143	307	-0.3	0.64	1.0000 
	10	2	-5	100	110	73	1.13	1.31	1.0000 
	2	-10	5	5	94	-14	-0.94	1.15	1.0000 
	2	-10	-5	69	123	58	-1.05	-1.25	1.0000 
	10	2	5	210	131	176	1.1	-1.42	1.0000 
	1	-10	-5	199	145	227	-0.38	-1.12	1.0000 
	10	1	-5	186	136	176	-0.29	0.71	1.0000 
	1	-10	5	2	95	-91	-0.47	0.92	1.0000 
	10	1	5	154	111	140	-0.38	-0.51	1.0000 
	-1	-10	5	224	155	217	-0.19	-0.64	1.0000 
	10	-1	5	25	98	35	-0.48	1.01	1.0000 
	-1	-10	-5	55	120	47	-0.38	0.74	1.0000 
	10	-1	-5	38	129	49	-0.44	-0.88	1.0000 
	-2	-10	5	7	106	-136	1.22	-1.31	1.0000 
	10	-2	-5	14	131	6	-1.09	-1.1	1.0000 
	10	-2	5	144	123	129	-0.97	1.09	1.0000 
	-2	-10	-5	41	113	24	1.14	1.58	1.0000 
	-3	-10	5	347	151	320	-0.48	0.56	1.0000 
	10	-3	-5	400	179	363	0.64	0.01	1.0000 
	10	-3	5	858	243	809	0.59	-0.32	1.0000 
	-3	-10	-5	267	156	254	-0.26	-0.35	1.0000 
	-4	-10	5	211	161	231	-0.45	-0.43	1.0000 
	10	-4	5	36	139	37	0.07	-0.37	1.0000 
	10	-4	-5	84	137	89	0.17	-0.18	1.0000 
	-4	-10	-5	108	130	121	-0.41	0.62	1.0000 
	10	-5	5	128	163	184	1.33	-1.42	1.0000 
	-5	-10	-5	2	90	12	-1.43	-0.38	1.0000 
	-5	-10	5	34	126	60	-1.23	1	1.0000 
	10	-5	-5	76	138	115	1.27	0.91	1.0000 
	10	-6	-5	1	95	-48	-0.21	-0.61	1.0000 
	-6	-10	-5	93	103	93	0.01	-0.7	1.0000 
	10	-6	5	1	129	-27	-0.26	0.77	1.0000 
	-6	-10	5	2	103	-79	-0.05	0.83	1.0000 
	-7	-10	-5	5	99	6	0.18	0.77	1.0000 
	10	-7	5	0	158	-96	-0.16	0.38	1.0000 
	10	-7	-5	24	105	31	-0.27	-0.58	1.0000 
	-7	-10	5	46	101	51	0.21	-0.73	1.0000 
	10	-8	5	127	218	108	0.59	0.06	1.0000 
	-8	-10	-5	65	80	61	-0.47	0.83	1.0000 
	-8	-10	5	100	109	84	-0.87	-0.7	1.0000 
	8	10	-5	15	92	8	-0.87	0.7	1.0000 
	10	-8	-5	3	109	-90	0.31	-1.02	1.0000 
	-9	-10	5	119	116	223	1.18	-2.5	1.0000 
	10	-9	5	61	187	145	-1.91	2.1	1.0000 
	9	10	-5	17	87	-21	1.18	2.5	1.0000 
	-9	-10	-5	1	83	14	1.6	1	1.0000 
	-10	-10	-5	198	92	276	1.2	-1.4	1.0000 
	10	10	-5	13	81	39	1.58	1.02	1.0000 
	-10	-10	5	87	128	144	1.58	-1.02	1.0000 
	11	10	-5	86	109	168	2.41	-0.84	1.0000 
	11	9	-5	1706	290	1401	2.51	1.73	1.0000 
	-11	-9	5	1213	216	957	2.51	-1.73	1.0000 
	11	8	-5	2102	388	2142	0.36	-0.73	1.0000 
	-11	-8	5	1601	291	1635	0.36	0.73	1.0000 
	-11	-7	5	1890	310	1880	0.28	1.74	1.0000 
	11	7	-5	2398	406	2387	0.28	-1.74	1.0000 
	11	6	5	2187	317	1851	-2.61	-1.2	1.0000 
	11	6	-5	1597	303	1323	-2.44	0.6	1.0000 
	-11	-6	5	2270	307	1942	-2.44	-0.6	1.0000 
	-11	-5	5	19	75	-34	-2.7	-1.11	1.0000 
	11	5	5	1	94	29	-2.84	-1.53	1.0000 
	5	-11	-5	17	117	72	2.73	-1.08	1.0000 
	11	5	-5	19	88	-5	-2.7	1.11	1.0000 
	11	4	5	512	185	539	-0.55	-2.09	1.0000 
	4	-11	-5	775	209	765	-0.6	-2.12	1.0000 
	11	4	-5	875	252	869	-0.06	1.81	1.0000 
	-11	-4	5	320	133	314	-0.06	-1.81	1.0000 
	3	-11	-5	2123	309	2015	0.7	0.93	1.0000 
	3	-11	5	1870	274	1748	0.9	-0.54	1.0000 
	11	3	-5	1322	297	1264	-0.71	-1.16	1.0000 
	11	3	5	2713	372	2634	-0.77	1.6	1.0000 
	11	2	-5	4546	461	4366	1.18	-2.64	1.0000 
	2	-11	-5	4600	402	4440	-0.68	1.96	1.0000 
	11	2	5	4941	458	4708	1.37	2.4	1.0000 
	2	-11	5	5059	396	4879	-0.75	-1.82	1.0000 
	11	1	-5	1169	304	1326	1.36	1.17	1.0000 
	11	1	5	1566	327	1750	1.35	-1.38	1.0000 
	1	-11	5	1590	284	1817	-1.92	1.14	1.0000 
	1	-11	-5	961	259	1117	-1.72	-1.48	1.0000 
	11	-1	5	971	280	1150	-1.92	1.21	1.0000 
	-1	-11	5	1679	307	1874	1.43	-1.09	1.0000 
	-1	-11	-5	1019	261	1158	1.24	1.49	1.0000 
	11	-1	-5	895	281	1061	-1.88	-1.51	1.0000 
	11	-2	5	5146	493	5008	-0.54	-1.77	1.0000 
	11	-2	-5	4517	467	4339	-0.78	1.87	1.0000 
	-2	-11	-5	5233	433	5035	1.18	-2.42	1.0000 
	-2	-11	5	5038	435	4798	1.43	2.64	1.0000 
	-3	-11	-5	1805	303	1758	-0.6	-1.48	1.0000 
	11	-3	5	2059	354	1922	0.97	-0.59	1.0000 
	-3	-11	5	2500	350	2408	-0.87	1.53	1.0000 
	11	-3	-5	1912	357	1809	0.73	0.62	1.0000 
	-4	-11	-5	910	226	910	-0.13	1.88	1.0000 
	-4	-11	5	648	216	670	-0.44	-1.99	1.0000 
	11	-4	-5	748	270	763	-0.35	-2.35	1.0000 
	11	-4	5	492	217	480	-0.54	1.81	1.0000 
	-5	-11	5	25	139	88	-2.74	-1.3	1.0000 
	11	-5	5	17	121	-70	2.72	0.39	1.0000 
	-5	-11	-5	21	97	-41	-2.8	1.28	1.0000 
	11	-5	-5	21	126	81	2.85	-0.81	1.0000 
	11	-6	-5	1879	346	1586	2.32	-0.54	1.0000 
	-6	-11	-5	2232	315	1913	-2.43	1.02	1.0000 
	11	-6	5	2191	398	1903	2.15	-0.27	1.0000 
	-6	-11	5	2096	309	1775	-2.51	-0.82	1.0000 
	11	-7	-5	2186	400	2122	-0.37	1.17	1.0000 
	-7	-11	-5	2148	330	2094	0.49	-0.95	1.0000 
	11	-7	5	2299	431	2215	-0.46	-1.94	1.0000 
	-7	-11	5	2362	365	2349	0.25	1.4	1.0000 
	-8	-11	-5	1354	255	1419	0.66	-0.78	1.0000 
	11	-8	5	1641	389	1701	-0.48	-0.11	1.0000 
	-8	-11	5	1658	301	1700	0.46	1.39	1.0000 
	11	-8	-5	1787	373	1863	-0.58	0.17	1.0000 
	-9	-11	5	1209	249	948	2.58	-1.55	1.0000 
	11	-9	5	1048	317	827	-2.77	2.02	1.0000 
	-9	-11	-5	1624	232	1321	2.58	0.85	1.0000 
	-10	-11	-5	158	89	260	1.9	-1.94	1.0000 
	-12	-8	5	4470	419	4555	-0.33	0.77	1.0000 
	12	8	-5	4753	504	4841	-0.33	-0.77	1.0000 
	-12	-7	5	4147	381	4072	-0.47	-0.61	1.0000 
	7	-12	-5	4097	374	4074	0.09	-0.22	1.0000 
	12	7	-5	3815	508	3743	-0.47	0.61	1.0000 
	-12	-6	5	1054	249	1096	-0.52	-0.89	1.0000 
	6	-12	-5	1242	254	1282	0.54	1.94	1.0000 
	12	6	5	1910	336	1944	-0.36	-1.02	1.0000 
	12	6	-5	1389	308	1437	-0.52	0.89	1.0000 
	-12	-5	5	144	114	138	0.17	-0.35	1.0000 
	12	5	5	543	145	522	0.32	0.36	1.0000 
	5	-12	-5	704	202	720	0.12	1.69	1.0000 
	12	5	-5	828	254	813	0.17	0.35	1.0000 
	12	4	5	4185	478	3993	-1.2	-1.8	1.0000 
	4	-12	-5	4364	384	4231	0.52	-3.24	1.0000 
	12	4	-5	3808	485	3667	-1.01	2.13	1.0000 
	3	-12	5	6821	488	6872	0.35	1.57	1.0000 
	12	3	-5	6789	614	6974	-0.76	-0.13	1.0000 
	3	-12	-5	7132	527	7122	0.12	-1.73	1.0000 
	12	3	5	6647	595	6853	-0.77	-0.59	1.0000 
	12	2	5	9099	699	9153	0.4	3.01	1.0000 
	2	-12	-5	9708	640	10005	-0.69	2.73	1.0000 
	2	-12	5	9430	597	9722	-0.7	-2.59	1.0000 
	12	2	-5	7836	684	7929	0.57	-3.2	1.0000 
	1	-12	5	2388	331	2396	-0.02	-0.61	1.0000 
	12	1	5	2110	373	2171	-0.46	0.13	1.0000 
	12	1	-5	2091	388	2140	-0.35	0.04	1.0000 
	1	-12	-5	2279	349	2306	0.11	0.64	1.0000 
	12	-1	-5	2082	387	2094	0.02	0.52	1.0000 
	12	-1	5	2231	382	2235	-0.05	-0.65	1.0000 
	-1	-12	5	1723	315	1775	-0.43	0.11	1.0000 
	-1	-12	-5	1817	327	1878	-0.48	-0.02	1.0000 
	12	-2	-5	8998	733	9249	-0.6	2.46	1.0000 
	12	-2	5	9105	740	9399	-0.7	-2.79	1.0000 
	-2	-12	-5	9781	662	9838	0.4	-3.06	1.0000 
	-2	-12	5	10036	659	10153	0.6	3.16	1.0000 
	-3	-12	-5	6869	538	7064	-0.74	0.44	1.0000 
	12	-3	5	5648	570	5685	0.26	1.04	1.0000 
	12	-3	-5	6325	597	6340	0.24	-2.04	1.0000 
	-3	-12	5	7631	565	7855	-0.86	0.07	1.0000 
	12	-4	-5	4216	529	4048	0.71	-3.35	1.0000 
	-4	-12	-5	4103	440	3951	-1.05	2.13	1.0000 
	12	-4	5	3740	514	3624	0.47	3.07	1.0000 
	-4	-12	5	4587	421	4373	-1.28	-1.82	1.0000 
	-5	-12	5	874	214	851	0.26	-0.3	1.0000 
	12	-5	-5	449	230	459	0.1	1.63	1.0000 
	12	-5	5	773	266	784	0.1	-1.08	1.0000 
	-5	-12	-5	544	176	529	0.22	-0.27	1.0000 
	12	-6	-5	1667	365	1706	0.46	1.66	1.0000 
	-6	-12	5	1755	323	1790	-0.37	-0.88	1.0000 
	12	-6	5	748	296	779	0.57	-1.99	1.0000 
	-6	-12	-5	1238	266	1275	-0.44	0.94	1.0000 
	12	-7	-5	3172	473	3118	0.31	-0.12	1.0000 
	12	-7	5	3693	546	3657	0.2	-0.02	1.0000 
	-7	-12	5	3802	458	3727	-0.39	0.17	1.0000 
	-7	-12	-5	4059	461	4027	-0.24	0.58	1.0000 
	-8	-12	-5	4303	406	4349	-0.1	-1.01	1.0000 
	12	-8	5	3776	563	3812	0.24	-0.35	1.0000 
	12	-8	-5	4912	515	5003	0.49	0.51	1.0000 
	-13	-7	5	3636	422	3565	0.24	-1.38	1.0000 
	6	-13	-5	1638	296	1648	-0.11	0.33	1.0000 
	-13	-6	5	1348	252	1426	0.78	-0.82	1.0000 
	13	6	-5	1893	400	1986	0.78	0.82	1.0000 
	13	5	-5	178	110	207	0.67	0.21	1.0000 
	5	-13	-5	4	85	-120	-0.15	1.24	1.0000 
	13	5	5	1	70	-170	0.65	0.37	1.0000 
	13	4	5	1885	369	1979	-0.52	1.35	1.0000 
	4	-13	-5	1445	285	1543	1.05	2.07	1.0000 
	13	4	-5	1570	371	1691	-0.91	-0.74	1.0000 
	13	3	5	5659	539	5470	-1.03	-1.33	1.0000 
	3	-13	5	5554	425	5412	0.58	0.58	1.0000 
	13	3	-5	5432	553	5260	-0.91	0.9	1.0000 
	3	-13	-5	5297	455	5187	0.42	-0.83	1.0000 
	13	2	5	8024	673	8220	-0.91	-2.27	1.0000 
	2	-13	-5	7872	593	8037	0.29	-2.59	1.0000 
	13	2	-5	7150	661	7222	-0.46	2.08	1.0000 
	2	-13	5	7593	544	7747	0.23	2.74	1.0000 
	13	1	-5	1861	377	1891	0.23	-0.03	1.0000 
	1	-13	-5	2196	359	2220	-0.16	0.03	1.0000 
	1	-13	5	2167	338	2184	-0.15	0.25	1.0000 
	13	1	5	2222	392	2269	0.34	0.13	1.0000 
	-1	-13	-5	2151	358	2183	0.25	-0.18	1.0000 
	13	-1	5	2072	392	2091	-0.17	0.24	1.0000 
	-1	-13	5	2962	392	2992	0.18	0.01	1.0000 
	13	-1	-5	2712	437	2730	-0.11	0.08	1.0000 
	-2	-13	5	7558	586	7670	-0.61	-2.18	1.0000 
	13	-2	5	7913	701	8050	0.18	2.6	1.0000 
	13	-2	-5	7636	687	7809	0.32	-2.67	1.0000 
	-2	-13	-5	7170	579	7336	-0.83	2.14	1.0000 
	-3	-13	5	5390	467	5237	-0.86	-1.19	1.0000 
	13	-3	-5	6078	580	5931	0.54	-0.86	1.0000 
	13	-3	5	4658	570	4573	0.38	0.36	1.0000 
	-3	-13	-5	5530	473	5320	-1.1	1.09	1.0000 
	-4	-13	5	1910	349	2031	-0.75	1.16	1.0000 
	-4	-13	-5	1616	334	1736	-0.84	-1.03	1.0000 
	13	-4	5	1707	395	1808	1.01	-2.15	1.0000 
	13	-4	-5	2065	414	2186	1.07	2.06	1.0000 
	-5	-13	-5	74	116	90	0.6	0.06	1.0000 
	-5	-13	5	258	155	290	0.64	0.28	1.0000 
	13	-5	-5	38	155	51	-0.26	0.92	1.0000 
	13	-5	5	21	111	29	-0.23	-0.81	1.0000 
	13	-6	-5	2185	447	2209	-0.2	0.29	1.0000 
	-6	-13	-5	2045	347	2143	0.78	0.6	1.0000 
	13	-7	-5	3264	500	3333	0.31	-0.63	1.0000 
	14	5	5	188	122	253	-1.39	-0.78	1.0000 
	5	-14	-5	191	113	272	1.4	-1.46	1.0000 
	14	4	5	925	230	875	-0.43	2.56	1.0000 
	4	-14	-5	836	211	845	0.68	3.38	1.0000 
	3	-14	-5	1844	328	1871	0.04	1.27	1.0000 
	14	3	5	3344	492	3479	-0.76	-0.12	1.0000 
	14	2	-5	3004	488	2947	-0.96	3.49	1.0000 
	14	2	5	2931	459	2872	-0.96	-3.4	1.0000 
	2	-14	-5	2690	387	2608	0.33	-3.05	1.0000 
	2	-14	5	3361	403	3315	0.08	3.02	1.0000 
	14	1	5	1112	251	1020	0.89	-0.44	1.0000 
	1	-14	5	959	212	922	-0.52	0.65	1.0000 
	14	1	-5	550	169	501	0.67	0.41	1.0000 
	1	-14	-5	556	172	537	-0.43	-0.89	1.0000 
	-1	-14	5	884	229	814	0.77	-0.27	1.0000 
	14	-1	5	1137	324	1106	-0.45	0.76	1.0000 
	14	-1	-5	1048	312	1019	-0.45	-0.83	1.0000 
	-1	-14	-5	695	213	637	0.69	0.58	1.0000 
	14	-2	5	2159	424	2111	0.13	3.12	1.0000 
	14	-2	-5	3094	495	3026	0.22	-3.04	1.0000 
	-2	-14	-5	3105	425	3005	-1.24	3.53	1.0000 
	-2	-14	5	3007	423	2957	-0.86	-3.25	1.0000 
	-3	-14	5	2611	406	2719	-0.62	-0.6	1.0000 
	14	-3	-5	2625	475	2683	0.19	1.31	1.0000 
	0	0	-6	937	69	3	21.57	-0.2	1.0000 
	0	-1	6	3401	203	4347	5.08	0.42	1.0000 
	0	-1	-6	3265	253	4113	4.66	0.92	1.0000 
	1	0	-6	3301	234	4194	4.88	0.15	1.0000 
	0	1	-6	3375	225	4317	5.08	-0.42	1.0000 
	1	0	-6	3676	247	4615	4.88	0.15	1.0000 
	-1	0	-6	3389	242	4299	4.91	0.32	1.0000 
	1	1	-6	24	49	41	6.9	2.78	1.0000 
	1	-1	-6	152	52	-35	8.04	1.72	1.0000 
	-1	1	-6	5	61	113	8.26	1.71	1.0000 
	-1	-1	-6	24	61	32	6.51	2.44	1.0000 
	1	1	-6	15	60	56	6.9	2.78	1.0000 
	-1	-1	6	19	62	48	6.9	-2.78	1.0000 
	1	-1	-6	14	42	75	8.04	1.72	1.0000 
	2	1	-6	4574	219	3830	3.83	0.31	1.0000 
	-2	-1	-6	4852	257	4127	3.62	-0.9	1.0000 
	-2	-1	6	4679	224	3926	3.83	-0.31	1.0000 
	-1	2	-6	4766	218	4102	3.33	0.36	1.0000 
	1	-2	6	4709	187	4050	3.33	-0.36	1.0000 
	1	-2	-6	4130	245	3456	3.69	1.97	1.0000 
	1	-2	-6	4599	187	3886	3.69	1.97	1.0000 
	2	1	-6	4587	248	3842	3.83	0.31	1.0000 
	0	-2	6	3015	242	5372	-12.22	1.91	1.0000 
	0	2	-6	2552	228	4747	-12.22	-1.91	1.0000 
	0	-2	-6	2825	297	5102	-12.18	1.02	1.0000 
	2	0	-6	2622	270	4823	-12.17	-0.49	1.0000 
	2	0	-6	2494	269	4650	-12.17	-0.49	1.0000 
	-1	-2	6	4611	222	3877	3.77	0.91	1.0000 
	1	2	6	4666	170	3935	3.72	-0.4	1.0000 
	2	-1	-6	4323	248	3651	3.56	0.66	1.0000 
	-1	-2	-6	4569	254	3846	3.72	0.4	1.0000 
	1	2	-6	4941	195	4180	3.77	-0.91	1.0000 
	-2	1	-6	4284	235	3640	3.44	1.58	1.0000 
	2	-1	-6	4682	225	3982	3.56	0.66	1.0000 
	2	-2	-6	1250	213	3877	17.94	-1.05	1.0000 
	2	-2	6	1133	160	3629	17.73	0.59	1.0000 
	2	2	-6	996	257	3442	18.07	-1.07	1.0000 
	-2	-2	6	1123	235	3675	18.07	1.07	1.0000 
	2	-2	-6	1211	258	3807	17.94	-1.05	1.0000 
	2	2	6	1197	198	3816	18.1	1.44	1.0000 
	2	2	-6	1182	201	3781	18.07	-1.07	1.0000 
	-2	-2	-6	1134	249	3703	18.1	-1.44	1.0000 
	2	-3	6	987	119	1694	6.38	2.06	1.0000 
	3	2	6	872	138	1449	5.67	0.91	1.0000 
	-3	-2	-6	1047	131	1672	5.67	-0.91	1.0000 
	2	-3	-6	946	186	1653	6.39	-2.72	1.0000 
	2	-3	-6	913	133	1609	6.39	-2.72	1.0000 
	-3	-2	6	1277	188	1948	5.57	-1.1	1.0000 
	-3	-2	-6	1117	192	1761	5.67	-0.91	1.0000 
	3	2	-6	908	183	1484	5.57	1.1	1.0000 
	1	-3	-6	2151	109	1752	-3.1	-2	1.0000 
	1	-3	6	2083	127	1664	-3.37	2.6	1.0000 
	-3	-1	6	2226	175	1894	-2.52	2.01	1.0000 
	-3	-1	-6	2059	115	1729	-2.63	-2.26	1.0000 
	1	-3	-6	2176	185	1775	-3.1	-2	1.0000 
	3	1	-6	2158	180	1831	-2.52	-2.01	1.0000 
	-3	-1	-6	2155	183	1817	-2.63	-2.26	1.0000 
	3	0	-6	12809	570	12402	-1.23	-1.66	1.0000 
	0	-3	6	13429	493	13015	-1.27	2.91	1.0000 
	0	-3	-6	12459	563	12034	-1.28	-0.59	1.0000 
	-3	0	-6	12694	414	12240	-1.38	-1.94	1.0000 
	-1	-3	6	2194	165	1868	-2.54	2.48	1.0000 
	-1	-3	-6	2290	200	1959	-2.46	-1.72	1.0000 
	1	3	-6	2342	109	2005	-2.54	-2.48	1.0000 
	3	-1	-6	2189	165	1772	-3.25	-2.35	1.0000 
	3	-2	6	805	75	1437	6.3	1.54	1.0000 
	-2	-3	6	1000	167	1589	5.5	-0.19	1.0000 
	-2	-3	-6	822	147	1389	5.74	-0.05	1.0000 
	-2	-3	-6	1182	187	1848	5.74	-0.05	1.0000 
	2	3	-6	831	97	1375	5.5	0.19	1.0000 
	2	3	-6	701	173	1206	5.5	0.19	1.0000 
	2	3	6	869	107	1450	5.74	0.05	1.0000 
	3	-2	-6	722	146	1355	6.31	-3.46	1.0000 
	-3	-3	-6	2608	154	1067	12.32	1.38	1.0000 
	3	3	6	2618	115	1073	12.32	-1.38	1.0000 
	3	3	-6	2726	176	1152	12.21	0.96	1.0000 
	-3	-3	-6	3000	141	1323	12.32	1.38	1.0000 
	3	-3	6	2623	90	1061	12.48	1.33	1.0000 
	3	-3	-6	2619	131	1068	12.36	-0.84	1.0000 
	-3	-3	6	2745	159	1164	12.21	-0.96	1.0000 
	4	3	6	1559	152	1443	-1.02	0.98	1.0000 
	3	-4	-6	1552	149	1350	-1.8	-1.14	1.0000 
	3	-4	6	1370	110	1186	-1.75	1.09	1.0000 
	4	3	-6	1732	209	1604	-1.12	-1.84	1.0000 
	-4	-3	-6	1636	147	1517	-1.02	-0.98	1.0000 
	3	-4	-6	1373	184	1183	-1.8	-1.14	1.0000 
	-4	-3	-6	1371	177	1262	-1.02	-0.98	1.0000 
	-4	-3	6	1182	167	1075	-1.12	1.84	1.0000 
	-4	-2	6	3552	326	5609	-10.17	-1.87	1.0000 
	-4	-2	-6	3132	254	5033	-9.99	-0.67	1.0000 
	2	-4	-6	3428	271	5270	-9.36	0.96	1.0000 
	4	2	6	3182	308	5096	-9.99	0.67	1.0000 
	4	2	-6	3602	364	5672	-10.17	1.87	1.0000 
	2	-4	6	3171	253	4972	-9.45	-1.51	1.0000 
	2	-4	-6	3162	330	4939	-9.36	0.96	1.0000 
	1	-4	-6	2026	202	1988	-0.28	-0.43	1.0000 
	-4	-1	6	2304	190	2195	-0.77	-0.18	1.0000 
	-4	-1	-6	2150	126	2045	-0.77	-0.11	1.0000 
	1	-4	-6	2110	129	2072	-0.28	-0.43	1.0000 
	1	-4	6	2051	154	1963	-0.66	1.1	1.0000 
	4	1	-6	2217	211	2110	-0.77	0.18	1.0000 
	4	1	6	2088	189	1984	-0.77	0.11	1.0000 
	0	-4	6	27246	808	21590	12.11	1.86	1.0000 
	4	0	-6	29467	957	23471	12.32	-1.18	1.0000 
	0	-4	-6	28598	923	22677	12.36	-0.97	1.0000 
	-4	0	-6	27097	719	21404	12.23	-1.52	1.0000 
	-1	-4	6	2199	184	2083	-0.84	0.26	1.0000 
	4	-1	-6	2403	207	2340	-0.44	-0.57	1.0000 
	-1	-4	-6	2257	216	2157	-0.71	0.21	1.0000 
	2	4	6	3376	249	5353	-10.05	-0.29	1.0000 
	-2	-4	6	3436	312	5451	-10.15	-0.69	1.0000 
	-2	-4	-6	3359	327	5332	-10.05	0.29	1.0000 
	-2	-4	-6	3000	294	4877	-10.05	0.29	1.0000 
	2	4	-6	3348	213	5340	-10.15	0.69	1.0000 
	4	-2	-6	3192	323	4967	-9.33	-0.11	1.0000 
	4	-3	6	1581	91	1392	-1.67	1.28	1.0000 
	3	4	-6	1518	201	1397	-1.11	-1.61	1.0000 
	4	-3	-6	1476	165	1285	-1.74	-1.2	1.0000 
	3	4	6	1303	119	1197	-1.04	1.32	1.0000 
	-3	-4	-6	1612	166	1494	-1.04	-1.32	1.0000 
	-3	-4	-6	1595	188	1477	-1.04	-1.32	1.0000 
	-3	-4	6	1261	172	1151	-1.11	1.61	1.0000 
	4	4	-6	867	152	562	4.08	-2.57	1.0000 
	-4	-4	-6	938	144	594	4.17	0.07	1.0000 
	4	-4	6	598	66	369	4.14	4.6	1.0000 
	4	-4	-6	690	109	433	3.95	-3.04	1.0000 
	-4	-4	6	686	127	416	4.08	2.57	1.0000 
	4	4	6	631	92	356	4.17	-0.07	1.0000 
	-4	-4	-6	805	114	489	4.17	0.07	1.0000 
	5	4	6	2916	292	4031	6.31	-1.36	1.0000 
	4	-5	6	3344	240	4477	6.06	0.08	1.0000 
	5	4	-6	2708	340	3756	6.17	0.35	1.0000 
	4	-5	-6	3101	294	4203	6.1	0.34	1.0000 
	-5	-4	-6	3293	276	4473	6.31	1.36	1.0000 
	-5	-4	6	2875	305	3953	6.17	-0.35	1.0000 
	5	3	6	2161	251	2997	-5.5	1.06	1.0000 
	-5	-3	6	2520	268	3406	-5.42	1.34	1.0000 
	-5	-3	-6	2334	215	3200	-5.5	-1.06	1.0000 
	3	-5	6	1978	193	2799	-5.62	0.95	1.0000 
	5	3	-6	2579	312	3475	-5.42	-1.34	1.0000 
	3	-5	-6	2688	295	3616	-5.48	-1.91	1.0000 
	3	-5	-6	1857	216	2638	-5.48	-1.91	1.0000 
	-5	-2	6	3095	215	2061	-6.89	2.05	1.0000 
	-5	-2	-6	3052	152	2015	-6.91	-0.74	1.0000 
	5	2	6	3359	212	2266	-6.91	0.74	1.0000 
	2	-5	-6	3396	223	2330	-6.69	-0.92	1.0000 
	5	2	-6	2864	238	1873	-6.89	-2.05	1.0000 
	2	-5	6	3076	167	2009	-7.12	1.13	1.0000 
	1	-5	6	474	119	605	-1.89	0.26	1.0000 
	-5	-1	-6	521	77	633	-1.55	0.13	1.0000 
	5	1	6	576	138	693	-1.55	-0.13	1.0000 
	1	-5	-6	607	147	712	-1.37	0.19	1.0000 
	5	1	-6	464	146	591	-1.84	0.1	1.0000 
	-5	-1	6	449	131	573	-1.84	-0.1	1.0000 
	-5	0	-6	2614	129	2606	-0.07	1.18	1.0000 
	0	-5	6	2938	218	2901	-0.25	-1.39	1.0000 
	0	-5	-6	2815	237	2814	-0.03	1.31	1.0000 
	5	0	-6	2695	261	2682	-0.11	1.4	1.0000 
	5	0	6	2709	247	2701	-0.07	-1.18	1.0000 
	-1	-5	6	412	120	530	-1.82	0.11	1.0000 
	-1	-5	-6	782	150	926	-1.64	0.46	1.0000 
	5	-1	-6	626	147	740	-1.46	0.03	1.0000 
	-2	-5	-6	3005	213	1995	-6.79	-1.06	1.0000 
	-2	-5	6	2994	212	1965	-6.97	1.72	1.0000 
	5	-2	-6	3210	236	2165	-6.76	-0.51	1.0000 
	-2	-5	-6	3253	217	2198	-6.79	-1.06	1.0000 
	3	5	-6	2273	294	3147	-5.6	-1.29	1.0000 
	3	5	6	2419	209	3289	-5.43	1.18	1.0000 
	-3	-5	-6	2778	284	3705	-5.43	-1.18	1.0000 
	5	-3	6	2761	157	3696	-5.48	1.34	1.0000 
	-3	-5	-6	2243	250	3083	-5.43	-1.18	1.0000 
	-3	-5	6	1952	250	2768	-5.6	1.29	1.0000 
	5	-3	-6	2211	262	3049	-5.44	-1.48	1.0000 
	-4	-5	-6	3177	320	4319	6.23	1.08	1.0000 
	4	5	-6	3750	379	4960	6.13	0.51	1.0000 
	5	-4	6	3027	205	4108	6.05	0.44	1.0000 
	-4	-5	-6	3405	302	4584	6.23	1.08	1.0000 
	5	-4	-6	2610	295	3633	6.13	0.66	1.0000 
	-4	-5	6	2815	310	3875	6.13	-0.51	1.0000 
	4	5	6	2841	262	3925	6.23	-1.08	1.0000 
	5	-5	-6	1142	129	437	9.46	3.64	1.0000 
	5	5	-6	1413	148	470	10.65	0.55	1.0000 
	-5	-5	6	1159	135	329	10.65	-0.55	1.0000 
	5	5	6	1389	116	472	10.63	-1.66	1.0000 
	-5	-5	-6	1333	124	439	10.63	1.66	1.0000 
	5	-5	6	1364	92	556	9.27	-2.2	1.0000 
	5	-6	6	161	63	53	3.61	-0.82	1.0000 
	6	5	6	407	96	185	4.4	-0.47	1.0000 
	-6	-5	6	343	113	145	4.34	-0.69	1.0000 
	6	5	-6	43	92	-29	4.34	0.69	1.0000 
	5	-6	-6	565	121	333	3.71	0.53	1.0000 
	-6	-5	-6	303	80	117	4.4	0.47	1.0000 
	4	-6	-6	198	118	413	2.23	3.59	1.0000 
	6	4	6	4	71	50	3.13	-1.19	1.0000 
	4	-6	6	4	69	67	2.19	-3.69	1.0000 
	6	4	-6	9	100	85	2.94	3.08	1.0000 
	-6	-4	-6	40	77	129	3.13	1.19	1.0000 
	-6	-4	6	23	107	123	2.94	-3.08	1.0000 
	4	-6	-6	211	150	431	2.23	3.59	1.0000 
	6	3	6	943	189	1129	-1.85	-1.97	1.0000 
	6	3	-6	834	207	1014	-1.92	1.8	1.0000 
	3	-6	6	865	147	1117	-2.63	-1.53	1.0000 
	-6	-3	6	1351	219	1580	-1.92	-1.8	1.0000 
	-6	-3	-6	989	142	1179	-1.85	1.97	1.0000 
	3	-6	-6	659	175	872	-2.52	1.94	1.0000 
	6	2	6	1	75	29	2.29	-1.81	1.0000 
	2	-6	6	25	77	95	1.4	2.85	1.0000 
	-6	-2	6	18	95	81	2.32	2.12	1.0000 
	2	-6	-6	3	82	35	1.96	-2.08	1.0000 
	6	2	-6	51	111	141	2.32	-2.12	1.0000 
	-6	-2	-6	103	67	211	2.29	1.81	1.0000 
	6	1	6	36	68	13	-1.62	0.51	1.0000 
	-6	-1	-6	100	44	58	-1.62	-0.51	1.0000 
	1	-6	6	8	58	-63	-1.76	0.75	1.0000 
	1	-6	-6	9	67	-55	-1.57	-1.2	1.0000 
	6	1	-6	10	72	-13	-1.86	-1.06	1.0000 
	0	-6	6	33	91	84	-9.75	-1.8	1.0000 
	6	0	-6	85	84	32	-9.81	1.36	1.0000 
	6	0	6	26	89	91	-9.71	-1.08	1.0000 
	0	-6	-6	10	111	317	-9.8	1.12	1.0000 
	-6	0	-6	1	43	189	-9.71	1.08	1.0000 
	-1	-6	-6	221	93	158	-1.61	-0.83	1.0000 
	-1	-6	-6	50	85	22	-1.61	-0.83	1.0000 
	6	-1	6	10	72	-92	-1.8	1.05	1.0000 
	6	-1	-6	51	78	25	-1.48	-0.97	1.0000 
	-1	-6	6	58	80	24	-1.84	0.63	1.0000 
	-2	-6	-6	126	114	225	2.48	0.41	1.0000 
	-2	-6	-6	37	92	97	2.48	0.41	1.0000 
	6	-2	-6	16	84	53	2.02	-0.76	1.0000 
	-2	-6	6	13	91	54	2.37	0.77	1.0000 
	-3	-6	-6	895	178	1084	-1.9	2.36	1.0000 
	6	-3	-6	1050	204	1296	-2.34	1.75	1.0000 
	3	6	6	1143	137	1357	-1.9	-2.36	1.0000 
	-3	-6	-6	1065	195	1272	-1.9	2.36	1.0000 
	-3	-6	6	1060	200	1254	-1.86	-1.42	1.0000 
	-4	-6	-6	216	127	393	3.02	1.63	1.0000 
	-4	-6	-6	162	135	319	3.02	1.63	1.0000 
	-4	-6	6	40	119	151	3.07	-2.58	1.0000 
	4	6	6	355	111	575	3.02	-1.63	1.0000 
	4	6	-6	70	126	205	3.07	2.58	1.0000 
	5	6	6	786	103	464	4.33	-0.3	1.0000 
	-5	-6	6	289	119	108	4.42	-0.62	1.0000 
	-5	-6	-6	534	117	276	4.33	0.3	1.0000 
	5	6	-6	45	92	-24	4.42	0.62	1.0000 
	6	-5	-6	33	63	-40	3.77	0.79	1.0000 
	6	6	-6	207	153	347	2.49	-2.46	1.0000 
	6	-6	-6	341	156	543	2.73	-2.81	1.0000 
	6	6	6	529	150	745	2.49	2.36	1.0000 
	-6	-6	-6	152	125	272	2.49	-2.36	1.0000 
	-6	-6	6	279	170	441	2.49	2.46	1.0000 
	-7	-6	-6	453	144	612	2.22	-1.2	1.0000 
	7	6	6	327	133	463	2.22	1.2	1.0000 
	7	6	-6	379	187	518	2.13	-1.11	1.0000 
	6	-7	-6	298	140	425	2.23	-0.33	1.0000 
	-7	-6	6	550	195	716	2.13	1.11	1.0000 
	-7	-5	-6	126	94	150	-0.67	-0.04	1.0000 
	5	-7	-6	295	161	324	-0.55	-0.18	1.0000 
	7	5	6	215	106	245	-0.67	0.04	1.0000 
	-7	-5	6	145	124	176	-0.79	-0.58	1.0000 
	7	5	-6	226	146	265	-0.79	0.58	1.0000 
	5	-7	-6	131	104	150	-0.55	-0.18	1.0000 
	4	-7	6	1378	170	1283	-1.06	-2.89	1.0000 
	7	4	-6	1601	276	1593	-0.16	2.04	1.0000 
	7	4	6	926	192	925	-0.05	-1.37	1.0000 
	-7	-4	-6	1201	168	1200	-0.05	1.37	1.0000 
	-7	-4	6	1196	215	1188	-0.16	-2.04	1.0000 
	4	-7	-6	1383	190	1301	-0.84	1.97	1.0000 
	4	-7	-6	1671	240	1581	-0.84	1.97	1.0000 
	3	-7	6	275	121	353	-0.91	-3.01	1.0000 
	-7	-3	-6	667	119	702	-0.09	2.02	1.0000 
	7	3	6	192	119	207	-0.09	-2.02	1.0000 
	-7	-3	6	898	198	956	-0.18	-2.26	1.0000 
	3	-7	-6	327	143	400	-0.91	2.38	1.0000 
	7	3	-6	482	182	522	-0.18	2.26	1.0000 
	2	-7	6	1825	223	2021	1.49	0.16	1.0000 
	7	2	-6	1409	263	1562	1.33	0.01	1.0000 
	2	-7	-6	1729	249	1914	1.44	-0.22	1.0000 
	-7	-2	-6	2537	188	2746	1.36	0.21	1.0000 
	7	2	6	1961	269	2146	1.36	-0.21	1.0000 
	-7	-2	6	1950	248	2130	1.33	-0.01	1.0000 
	-7	-1	-6	1563	124	1527	0.31	-0.42	1.0000 
	1	-7	-6	1731	217	1656	0.65	-1.45	1.0000 
	7	1	6	1812	244	1773	0.31	0.42	1.0000 
	7	1	-6	1463	240	1444	0.17	-0.44	1.0000 
	1	-7	6	1631	197	1563	0.62	1.52	1.0000 
	7	0	-6	563	156	434	-1.94	-0.36	1.0000 
	7	0	6	170	93	103	-1.92	0.39	1.0000 
	0	-7	-6	285	117	200	-1.84	-0.26	1.0000 
	0	-7	6	284	111	190	-2.04	0.43	1.0000 
	-1	-7	-6	1674	227	1640	0.29	-0.56	1.0000 
	7	-1	6	1529	239	1460	0.64	1.39	1.0000 
	-1	-7	6	1899	229	1871	0.22	0.46	1.0000 
	-1	-7	-6	2010	230	1973	0.29	-0.56	1.0000 
	7	-1	-6	1610	242	1538	0.67	-1.63	1.0000 
	7	-2	6	1549	269	1739	1.56	-0.06	1.0000 
	-2	-7	-6	2310	272	2502	1.31	0.01	1.0000 
	-2	-7	6	2114	258	2320	1.46	-0.27	1.0000 
	7	-2	-6	1953	283	2167	1.57	-0.21	1.0000 
	-2	-7	-6	2124	237	2308	1.31	0.01	1.0000 
	-3	-7	6	472	161	508	-0.01	-2.55	1.0000 
	-3	-7	-6	453	155	483	-0.18	1.86	1.0000 
	-3	-7	-6	422	144	451	-0.18	1.86	1.0000 
	7	-3	-6	356	156	428	-0.81	2.39	1.0000 
	7	-4	-6	1395	233	1308	-0.85	1.65	1.0000 
	-4	-7	-6	1085	207	1083	-0.04	1.03	1.0000 
	-4	-7	-6	1349	206	1347	-0.04	1.03	1.0000 
	-4	-7	6	1655	252	1667	-0.01	-2.19	1.0000 
	-5	-7	6	224	145	261	-0.78	-0.1	1.0000 
	5	7	-6	150	133	180	-0.78	0.1	1.0000 
	7	-5	-6	229	133	249	-0.43	-0.25	1.0000 
	-5	-7	-6	114	115	138	-0.72	0.31	1.0000 
	-5	-7	-6	265	129	302	-0.72	0.31	1.0000 
	-6	-7	-6	318	143	439	2.06	-0.68	1.0000 
	-6	-7	6	147	142	244	2.21	1.8	1.0000 
	7	-6	-6	268	155	392	2.26	-0.54	1.0000 
	6	7	-6	238	168	359	2.21	-1.8	1.0000 
	7	-7	-6	775	190	645	1.7	-1.33	1.0000 
	-7	-7	6	550	165	436	1.74	0.8	1.0000 
	7	7	-6	493	173	385	1.74	-0.8	1.0000 
	-7	-7	-6	840	178	701	1.69	-0.52	1.0000 
	7	-8	-6	8	106	39	-2.24	-0.78	1.0000 
	8	7	-6	206	155	327	-2.37	0.89	1.0000 
	-8	-7	-6	359	134	511	-2.38	0.7	1.0000 
	-8	-7	6	290	162	430	-2.37	-0.89	1.0000 
	6	-8	-6	12	117	7	-0.53	1.2	1.0000 
	-8	-6	6	94	105	87	-0.29	-0.57	1.0000 
	8	6	6	110	82	108	-0.08	-0.19	1.0000 
	6	-8	-6	20	97	15	-0.53	1.2	1.0000 
	8	6	-6	1	91	-103	-0.29	0.57	1.0000 
	-8	-6	-6	141	94	138	-0.08	0.19	1.0000 
	-8	-5	6	9	123	-17	-1.66	1.08	1.0000 
	8	5	6	27	97	66	-1.58	1.24	1.0000 
	8	5	-6	25	119	63	-1.66	-1.08	1.0000 
	-8	-5	-6	32	73	74	-1.58	-1.24	1.0000 
	5	-8	-6	7	97	-187	-1.47	0.89	1.0000 
	4	-8	6	703	156	746	-0.53	-0.28	1.0000 
	-8	-4	6	851	205	870	-0.2	0.56	1.0000 
	-8	-4	-6	720	141	746	-0.31	0.5	1.0000 
	8	4	-6	974	242	994	-0.2	-0.56	1.0000 
	4	-8	-6	719	192	760	-0.5	-0.42	1.0000 
	8	4	6	557	172	580	-0.31	-0.5	1.0000 
	3	-8	6	673	175	968	3.44	0.45	1.0000 
	-8	-3	6	752	204	1042	3.06	-1.97	1.0000 
	-8	-3	-6	774	154	1068	3.15	1.43	1.0000 
	8	3	-6	680	231	957	3.06	1.97	1.0000 
	3	-8	-6	384	176	611	3.42	-0.38	1.0000 
	8	3	6	340	181	542	3.15	-1.43	1.0000 
	2	-8	-6	1823	245	1782	0.36	1.34	1.0000 
	8	2	-6	1729	284	1706	0.22	1.29	1.0000 
	8	2	6	2005	282	1969	0.29	0.86	1.0000 
	-8	-2	6	2303	262	2277	0.22	-1.29	1.0000 
	2	-8	6	2007	239	1923	0.66	-1.15	1.0000 
	1	-8	6	1090	186	962	-1.34	0.35	1.0000 
	8	1	-6	1193	236	1103	-0.89	-0.07	1.0000 
	8	1	6	831	196	767	-0.76	0.36	1.0000 
	1	-8	-6	929	175	805	-1.41	-0.39	1.0000 
	8	0	6	72	93	56	0.69	0.4	1.0000 
	8	0	-6	160	128	132	0.78	-0.52	1.0000 
	0	-8	6	143	104	117	0.76	0.53	1.0000 
	0	-8	-6	191	109	162	0.73	-0.58	1.0000 
	0	-8	-6	76	116	58	0.73	-0.58	1.0000 
	-1	-8	-6	723	184	654	-0.88	-0.38	1.0000 
	-1	-8	-6	964	182	884	-0.88	-0.38	1.0000 
	-1	-8	6	1191	206	1125	-0.65	0.12	1.0000 
	8	-1	-6	725	195	622	-1.34	-0.72	1.0000 
	8	-1	6	712	184	597	-1.5	0	1.0000 
	-2	-8	-6	2166	245	2143	0.16	-0.05	1.0000 
	-2	-8	6	2324	276	2276	0.34	-0.55	1.0000 
	8	-2	-6	1438	266	1398	0.36	-0.02	1.0000 
	-2	-8	-6	2255	282	2232	0.16	-0.05	1.0000 
	8	-2	6	1664	275	1607	0.57	-2.22	1.0000 
	-3	-8	-6	746	183	1016	2.94	1.52	1.0000 
	-3	-8	-6	589	201	831	2.94	1.52	1.0000 
	8	-3	6	415	208	661	3.55	0.35	1.0000 
	8	-3	-6	291	182	488	3.34	-0.43	1.0000 
	-3	-8	6	901	225	1225	3.17	-1.79	1.0000 
	-4	-8	6	772	202	797	-0.3	0.13	1.0000 
	8	-4	-6	590	195	639	-0.65	0.43	1.0000 
	-4	-8	-6	697	169	714	-0.21	-0.24	1.0000 
	-4	-8	-6	601	177	617	-0.21	-0.24	1.0000 
	8	-5	-6	7	108	-19	-1.43	1.01	1.0000 
	-5	-8	-6	8	84	-22	-1.52	-1.17	1.0000 
	-5	-8	-6	14	105	42	-1.52	-1.17	1.0000 
	-5	-8	6	8	129	32	-1.6	1.15	1.0000 
	-6	-8	6	224	146	220	-0.09	0.02	1.0000 
	8	-6	-6	91	118	83	-0.4	0.81	1.0000 
	-6	-8	-6	64	99	61	-0.22	0.79	1.0000 
	6	8	-6	0	79	-70	-0.09	-0.02	1.0000 
	7	8	-6	142	136	244	-2.44	0.56	1.0000 
	8	-7	-6	114	126	213	-2.29	-1.53	1.0000 
	-7	-8	-6	213	129	336	-2.38	0.9	1.0000 
	-7	-8	6	155	138	261	-2.44	-0.56	1.0000 
	-8	-8	6	823	217	757	-0.8	0.74	1.0000 
	8	8	-6	1280	288	1198	-0.8	-0.74	1.0000 
	8	-8	-6	949	235	959	-0.27	-3.36	1.0000 
	-8	-8	-6	1219	217	1140	-0.81	-1.03	1.0000 
	9	8	-6	27	127	101	3.25	-0.34	1.0000 
	-9	-8	-6	6	80	6	3.24	0.38	1.0000 
	-9	-8	6	42	118	130	3.25	0.34	1.0000 
	9	7	-6	419	148	369	0.85	1.01	1.0000 
	7	-9	-6	639	213	602	0.49	0.35	1.0000 
	-9	-7	-6	547	135	496	0.78	1.22	1.0000 
	-9	-7	6	830	201	761	0.85	-1.01	1.0000 
	6	-9	-6	196	142	231	0.75	-1.44	1.0000 
	9	6	6	102	113	125	0.71	-0.24	1.0000 
	9	6	-6	178	144	203	0.59	0.4	1.0000 
	-9	-6	6	295	164	327	0.59	-0.4	1.0000 
	-9	-6	-6	200	98	231	0.71	0.24	1.0000 
	9	5	-6	264	140	259	0.09	0.1	1.0000 
	9	5	6	187	103	189	-0.05	0	1.0000 
	-9	-5	-6	135	87	137	-0.05	0	1.0000 
	-9	-5	6	99	127	96	0.09	-0.1	1.0000 
	5	-9	-6	204	125	194	0.28	-0.86	1.0000 
	4	-9	-6	8	89	-17	-1.77	-0.66	1.0000 
	9	4	-6	16	111	65	-2.17	-2.02	1.0000 
	9	4	6	21	58	-57	-2.44	1.83	1.0000 
	-9	-4	6	11	114	52	-2.17	2.02	1.0000 
	4	-9	6	5	92	19	-1.6	1.27	1.0000 
	3	-9	-6	6	87	5	0.2	1.02	1.0000 
	9	3	6	151	116	165	-0.21	0.75	1.0000 
	9	3	-6	70	110	87	-0.37	-1.04	1.0000 
	-9	-3	6	34	112	45	-0.37	1.04	1.0000 
	3	-9	6	21	99	20	0.07	-0.2	1.0000 
	2	-9	6	726	176	682	-0.67	-2.1	1.0000 
	2	-9	-6	926	187	883	-0.65	2.36	1.0000 
	9	2	6	961	220	911	-0.56	-0.63	1.0000 
	9	2	-6	886	232	826	-0.69	0.66	1.0000 
	1	-9	-6	254	150	281	-0.54	0.03	1.0000 
	9	1	6	265	150	273	-0.16	0.15	1.0000 
	1	-9	-6	308	133	337	-0.54	0.03	1.0000 
	1	-9	6	463	164	479	-0.24	0.07	1.0000 
	9	1	-6	479	193	508	-0.43	-0.13	1.0000 
	0	-9	6	565	187	696	1.73	0.55	1.0000 
	9	0	6	377	171	482	1.68	0.47	1.0000 
	0	-9	-6	547	189	659	1.51	-0.48	1.0000 
	0	-9	-6	583	172	698	1.51	-0.48	1.0000 
	9	0	-6	438	199	538	1.51	-0.52	1.0000 
	9	-1	6	438	181	467	-0.46	-0.03	1.0000 
	-1	-9	6	429	167	445	-0.26	0.26	1.0000 
	-1	-9	-6	414	167	430	-0.25	-0.12	1.0000 
	9	-1	-6	508	210	525	-0.24	0	1.0000 
	-1	-9	-6	514	151	532	-0.25	-0.12	1.0000 
	-2	-9	-6	1009	225	946	-0.68	0.51	1.0000 
	-2	-9	6	888	203	838	-0.57	-0.51	1.0000 
	9	-2	6	889	228	837	-0.77	-2.5	1.0000 
	9	-2	-6	545	190	513	-0.53	1.87	1.0000 
	9	-3	6	12	105	13	-0.02	-0.57	1.0000 
	-3	-9	-6	137	127	163	-0.42	-1.08	1.0000 
	9	-3	-6	22	108	19	0.27	0.34	1.0000 
	-3	-9	6	122	137	138	-0.15	1.08	1.0000 
	-4	-9	-6	28	126	85	-2.25	-1.71	1.0000 
	9	-4	-6	8	85	-146	-1.81	-0.69	1.0000 
	9	-4	6	10	144	-4	-1.58	1.44	1.0000 
	-4	-9	6	25	111	-47	-2.32	2.42	1.0000 
	-5	-9	-6	0	101	-26	0.13	-0.07	1.0000 
	-5	-9	6	212	160	206	0.14	-0.16	1.0000 
	9	-5	-6	175	151	167	0.21	-0.61	1.0000 
	9	-5	6	142	167	130	0.35	0.57	1.0000 
	-6	-9	6	250	164	284	0.67	-0.76	1.0000 
	-6	-9	-6	345	156	385	0.7	0.27	1.0000 
	9	-6	-6	289	181	341	0.96	-0.96	1.0000 
	9	-7	-6	645	195	606	0.52	0.1	1.0000 
	-7	-9	6	506	161	461	0.71	-0.96	1.0000 
	7	9	-6	304	141	269	0.71	0.96	1.0000 
	-7	-9	-6	666	170	613	0.76	1.54	1.0000 
	-8	-9	-6	84	112	197	3.26	-0.03	1.0000 
	-8	-9	6	151	144	294	3.24	-0.14	1.0000 
	8	9	-6	146	144	287	3.24	0.14	1.0000 
	9	-8	-6	28	102	81	2.38	-0.77	1.0000 
	-9	-9	6	564	181	569	0.09	1.41	1.0000 
	-9	-9	-6	191	112	195	0.17	-2.26	1.0000 
	9	9	-6	121	96	121	0.09	-1.41	1.0000 
	10	9	-6	52	118	33	-0.98	-0.33	1.0000 
	-10	-9	6	98	110	71	-0.98	0.33	1.0000 
	9	-10	-6	3	112	-8	-0.62	1.08	1.0000 
	8	-10	-6	126	110	183	1.03	1.72	1.0000 
	10	8	-6	5	76	-43	1.42	0.04	1.0000 
	-10	-8	6	89	114	134	1.42	-0.04	1.0000 
	10	7	-6	2	104	-13	0.87	-0.2	1.0000 
	-10	-7	6	6	103	14	0.87	0.2	1.0000 
	7	-10	-6	103	118	125	0.65	0.71	1.0000 
	10	6	-6	2	87	-69	-0.91	0.4	1.0000 
	-10	-6	6	2	89	-107	-0.91	-0.4	1.0000 
	10	6	6	22	79	52	-1.53	-1.04	1.0000 
	6	-10	-6	2	94	-23	-0.52	-0.69	1.0000 
	-10	-5	6	196	135	257	1.27	-1.16	1.0000 
	10	5	-6	7	97	-53	1.27	1.16	1.0000 
	5	-10	-6	24	83	44	1.27	-1.66	1.0000 
	10	5	6	135	121	175	0.93	-1.63	1.0000 
	4	-10	-6	52	84	66	0.63	-0.09	1.0000 
	10	4	6	9	79	-96	0.66	1.9	1.0000 
	4	-10	6	132	110	161	0.8	0.04	1.0000 
	-10	-4	6	20	106	29	0.28	1.24	1.0000 
	10	4	-6	4	102	-31	0.28	-1.24	1.0000 
	-10	-3	6	8	81	45	-1.27	3.12	1.0000 
	10	3	-6	25	127	-16	-1.27	-3.12	1.0000 
	3	-10	6	4	101	-98	-0.72	-1.15	1.0000 
	10	3	6	57	103	127	-1.02	2.72	1.0000 
	3	-10	-6	4	71	-62	-0.77	1.09	1.0000 
	10	2	-6	38	134	49	-0.55	-0.52	1.0000 
	10	2	6	343	138	376	-0.57	-0.12	1.0000 
	2	-10	-6	116	142	127	-0.3	-0.53	1.0000 
	2	-10	6	182	143	191	-0.19	0.48	1.0000 
	10	1	-6	699	228	744	-0.53	1.12	1.0000 
	1	-10	6	340	143	361	-0.36	0.23	1.0000 
	1	-10	-6	507	189	543	-0.53	0.09	1.0000 
	10	1	6	326	167	340	-0.25	-0.83	1.0000 
	10	0	-6	403	185	364	-0.68	0.8	1.0000 
	0	-10	-6	306	151	279	-0.54	0.91	1.0000 
	0	-10	6	319	163	292	-0.53	-0.95	1.0000 
	10	0	6	335	148	311	-0.46	-1.02	1.0000 
	-1	-10	-6	638	203	661	-0.28	1.07	1.0000 
	10	-1	-6	739	237	780	-0.49	-0.13	1.0000 
	-1	-10	6	685	219	723	-0.47	-0.73	1.0000 
	10	-1	6	215	153	230	-0.32	-0.06	1.0000 
	-2	-10	6	1	133	-26	-0.64	0.22	1.0000 
	10	-2	-6	107	119	116	-0.28	-0.28	1.0000 
	10	-2	6	151	137	165	-0.31	0.6	1.0000 
	-2	-10	-6	1	102	-51	-0.66	-0.08	1.0000 
	-3	-10	6	25	103	-104	-1.13	3.13	1.0000 
	10	-3	6	165	132	210	-1.08	-1.32	1.0000 
	10	-3	-6	68	140	67	-0.5	0.61	1.0000 
	-3	-10	-6	22	89	-168	-1.29	-2.83	1.0000 
	-4	-10	-6	117	121	143	0.34	-1.18	1.0000 
	10	-4	-6	71	145	95	0.86	-0.31	1.0000 
	-4	-10	6	14	106	-204	0.38	2.45	1.0000 
	10	-4	6	1	95	-86	0.53	-0.05	1.0000 
	10	-5	-6	49	125	74	1.06	-1.46	1.0000 
	-5	-10	6	83	140	119	1.1	-1.4	1.0000 
	-5	-10	-6	109	113	152	1.18	1.29	1.0000 
	10	-5	6	25	155	46	1.24	1.81	1.0000 
	-6	-10	6	8	93	-78	-1.15	-1.46	1.0000 
	10	-6	6	1	156	2	-0.49	0.75	1.0000 
	10	-6	-6	40	120	63	-0.82	-0.97	1.0000 
	-6	-10	-6	2	90	-94	-0.93	0.19	1.0000 
	10	-7	6	2	165	-58	0.87	-0.47	1.0000 
	-7	-10	6	2	96	-133	0.83	-0.37	1.0000 
	-7	-10	-6	2	79	-29	0.94	-0.09	1.0000 
	10	-7	-6	35	127	46	0.55	0.89	1.0000 
	10	-8	-6	36	127	70	0.92	2.09	1.0000 
	-8	-10	-6	108	111	159	1.37	0.8	1.0000 
	-8	-10	6	95	118	147	1.47	-0.88	1.0000 
	-9	-10	6	227	150	195	-0.8	-0.84	1.0000 
	-9	-10	-6	183	127	134	-1.31	-0.32	1.0000 
	9	10	-6	114	114	91	-0.8	0.84	1.0000 
	-10	-10	-6	626	127	527	1.38	-0.09	1.0000 
	-10	-10	6	344	145	282	1.17	0.2	1.0000 
	10	10	-6	176	105	133	1.17	-0.2	1.0000 
	11	10	-6	351	153	431	1.07	-1.5	1.0000 
	-11	-9	6	241	127	263	-0.41	-0.48	1.0000 
	11	9	-6	147	104	164	-0.41	0.48	1.0000 
	-11	-8	6	221	129	229	-0.17	0.02	1.0000 
	11	8	-6	90	95	95	-0.17	-0.02	1.0000 
	11	7	-6	169	88	151	0.49	-0.5	1.0000 
	-11	-7	6	273	136	250	0.49	0.5	1.0000 
	11	6	-6	189	118	137	-1.38	0.32	1.0000 
	11	6	6	6	65	-132	-1.56	-0.27	1.0000 
	-11	-6	6	373	139	298	-1.38	-0.32	1.0000 
	-11	-5	6	270	121	267	0.05	-0.19	1.0000 
	11	5	6	115	99	121	-0.17	-0.45	1.0000 
	11	5	-6	0	84	-52	0.05	0.19	1.0000 
	11	4	6	6	68	-140	0.91	-1.3	1.0000 
	11	4	-6	23	94	15	0.74	0.6	1.0000 
	4	-11	-6	7	114	-83	1.34	1.11	1.0000 
	-11	-4	6	286	124	261	0.74	-0.6	1.0000 
	11	3	6	86	118	69	0.71	-0.57	1.0000 
	3	-11	-6	195	132	176	0.93	-1.35	1.0000 
	11	3	-6	1	108	-10	0.47	-0.41	1.0000 
	3	-11	6	66	90	47	1.03	0.87	1.0000 
	2	-11	-6	469	184	509	0.53	-1.62	1.0000 
	11	2	-6	534	212	592	0.82	0	1.0000 
	2	-11	6	600	179	652	0.57	2.03	1.0000 
	11	2	6	485	190	550	0.96	-0.16	1.0000 
	11	1	6	40	115	61	-1	0.22	1.0000 
	11	1	-6	73	136	108	-1.22	-0.09	1.0000 
	1	-11	-6	126	153	174	-1.11	1.18	1.0000 
	1	-11	6	201	151	266	-1.29	-0.94	1.0000 
	11	0	-6	136	152	73	-2.09	-0.14	1.0000 
	11	0	6	224	135	143	-2	0.01	1.0000 
	0	-11	-6	137	148	74	-2.08	-0.45	1.0000 
	0	-11	6	430	153	310	-2.09	-0.35	1.0000 
	-1	-11	-6	94	131	129	-1.08	-0.41	1.0000 
	11	-1	-6	4	115	-47	-1.21	0.65	1.0000 
	11	-1	6	8	83	-153	-1.25	-1.42	1.0000 
	-1	-11	6	156	136	200	-1.11	0.03	1.0000 
	11	-2	-6	338	201	373	0.54	-1.84	1.0000 
	-2	-11	6	800	239	879	0.91	-0.11	1.0000 
	-2	-11	-6	543	206	609	0.91	0.12	1.0000 
	11	-2	6	565	211	610	0.53	1.59	1.0000 
	-3	-11	6	96	144	78	0.64	-0.15	1.0000 
	-3	-11	-6	230	128	208	0.49	0.1	1.0000 
	11	-3	6	72	107	61	0.91	1.53	1.0000 
	11	-3	-6	274	169	229	1.09	-0.68	1.0000 
	-4	-11	6	162	149	162	0.85	-1.24	1.0000 
	-4	-11	-6	18	107	11	0.81	0.68	1.0000 
	11	-4	-6	12	101	-143	1.55	1.76	1.0000 
	11	-4	6	69	123	63	1.12	-1.19	1.0000 
	11	-5	-6	0	119	-10	-0.04	0.22	1.0000 
	11	-5	6	236	177	231	0.11	-0.1	1.0000 
	-5	-11	6	378	182	384	-0.1	-0.43	1.0000 
	-5	-11	-6	304	126	302	0.04	0.26	1.0000 
	-6	-11	-6	4	90	-15	-1.32	0.28	1.0000 
	-6	-11	6	518	165	417	-1.57	-0.16	1.0000 
	11	-6	6	48	166	30	-0.98	0.12	1.0000 
	11	-6	-6	160	125	110	-1.5	-0.99	1.0000 
	11	-7	6	189	179	176	0.34	-0.71	1.0000 
	-7	-11	-6	145	101	126	0.6	-1.05	1.0000 
	11	-7	-6	337	165	323	0.28	0.5	1.0000 
	-7	-11	6	52	116	44	0.4	0.54	1.0000 
	11	-8	6	12	155	13	-0.04	0.2	1.0000 
	11	-8	-6	24	113	32	-0.1	1.14	1.0000 
	-8	-11	6	277	147	290	-0.04	0.69	1.0000 
	-8	-11	-6	0	74	-31	-0.12	0.12	1.0000 
	11	-9	6	50	193	82	0.06	3.04	1.0000 
	-9	-11	6	247	140	258	-0.17	-0.47	1.0000 
	-9	-11	-6	158	88	193	-0.31	1.74	1.0000 
	-10	-11	-6	102	105	155	1.57	0.18	1.0000 
	12	8	-6	304	129	359	0.92	0.63	1.0000 
	-12	-8	6	505	147	575	0.92	-0.63	1.0000 
	-12	-7	6	624	160	720	1.23	0.04	1.0000 
	-12	-6	6	699	147	655	0.56	0.08	1.0000 
	6	-12	-6	227	144	210	0.37	0.27	1.0000 
	12	6	-6	500	171	463	0.56	-0.08	1.0000 
	12	5	6	293	96	260	-0.67	0.19	1.0000 
	5	-12	-6	300	133	268	-0.66	0.61	1.0000 
	-12	-5	6	329	103	286	-0.82	0.34	1.0000 
	12	5	-6	379	143	333	-0.82	-0.34	1.0000 
	12	4	6	143	98	247	-1.44	-2.89	1.0000 
	4	-12	-6	53	118	68	-0.63	0.42	1.0000 
	12	4	-6	77	95	131	-1.27	1.98	1.0000 
	3	-12	6	452	156	525	0.85	-1.72	1.0000 
	12	3	-6	260	166	360	1.2	3.15	1.0000 
	3	-12	-6	428	180	481	0.75	0.9	1.0000 
	12	3	6	186	135	258	0.88	-3.35	1.0000 
	12	2	-6	899	228	737	1.89	-0.22	1.0000 
	2	-12	-6	1075	224	931	1.53	0.62	1.0000 
	12	2	6	1281	257	1080	1.96	0.4	1.0000 
	2	-12	6	993	214	867	1.45	-1.22	1.0000 
	1	-12	6	387	171	419	0.5	0.3	1.0000 
	12	1	6	96	123	106	-0.43	1.88	1.0000 
	12	1	-6	111	134	137	-0.55	-2.53	1.0000 
	1	-12	-6	299	165	337	0.71	-0.16	1.0000 
	12	0	6	150	129	198	-0.87	1.76	1.0000 
	0	-12	6	366	177	448	-0.94	1.84	1.0000 
	12	0	-6	86	152	119	-0.86	-1.6	1.0000 
	0	-12	-6	229	163	285	-0.89	-1.51	1.0000 
	-1	-12	-6	226	163	265	-0.55	-2.43	1.0000 
	12	-1	-6	3	139	8	0.71	-0.14	1.0000 
	-1	-12	6	374	168	405	-0.48	2	1.0000 
	12	-1	6	8	86	12	0.47	0.39	1.0000 
	12	-2	6	744	205	633	1.47	-1.16	1.0000 
	12	-2	-6	1111	291	957	1.61	0.62	1.0000 
	-2	-12	-6	1075	228	896	1.94	-0.92	1.0000 
	-2	-12	6	1620	271	1397	1.92	0.04	1.0000 
	-3	-12	6	418	198	564	0.97	-3.98	1.0000 
	12	-3	-6	201	169	237	0.63	1.58	1.0000 
	-3	-12	-6	401	177	505	1.06	2.67	1.0000 
	12	-3	6	317	172	380	1.02	-1.14	1.0000 
	12	-4	6	7	124	13	-0.64	-0.19	1.0000 
	-4	-12	-6	202	133	287	-1.31	1.9	1.0000 
	-4	-12	6	268	180	434	-1.16	-3.67	1.0000 
	12	-4	-6	218	159	258	-0.78	0.7	1.0000 
	12	-5	6	255	176	228	-0.58	-0.34	1.0000 
	-5	-12	-6	436	162	382	-0.89	-0.12	1.0000 
	-5	-12	6	281	169	249	-0.65	0.25	1.0000 
	12	-5	-6	248	192	224	-0.54	0.68	1.0000 
	12	-6	6	184	193	165	0.48	0.25	1.0000 
	-6	-12	-6	365	143	333	0.59	0.69	1.0000 
	-6	-12	6	755	240	703	0.68	0.71	1.0000 
	12	-6	-6	110	152	94	0.52	0.61	1.0000 
	12	-7	6	100	172	124	0.73	0.89	1.0000 
	-7	-12	6	639	192	740	1.21	0.96	1.0000 
	12	-7	-6	256	154	297	0.72	-1.28	1.0000 
	-7	-12	-6	89	122	128	1.25	0.08	1.0000 
	-8	-12	-6	400	154	464	1.02	0.26	1.0000 
	12	-8	-6	256	139	294	0.54	-1.05	1.0000 
	-13	-7	6	815	200	982	-1.49	1.34	1.0000 
	6	-13	-6	311	116	312	-0.38	1.54	1.0000 
	13	6	-6	267	129	269	-0.2	-1.29	1.0000 
	-13	-6	6	293	117	296	-0.2	1.29	1.0000 
	13	5	6	84	100	86	-0.07	0.31	1.0000 
	5	-13	-6	132	120	140	0.01	-1.16	1.0000 
	13	5	-6	1	98	-72	-0.32	-0.67	1.0000 
	13	4	-6	129	149	230	-0.32	2.69	1.0000 
	4	-13	-6	5	97	16	-0.01	-1.63	1.0000 
	13	4	6	59	102	97	-0.03	-1.69	1.0000 
	3	-13	-6	292	160	399	0.33	3.5	1.0000 
	13	3	6	257	134	339	0.26	-3.13	1.0000 
	13	3	-6	94	124	193	0.82	4.79	1.0000 
	13	2	6	338	149	456	1.98	-0.09	1.0000 
	2	-13	6	834	220	1043	1.57	-2.97	1.0000 
	2	-13	-6	585	204	739	1.6	2.24	1.0000 
	13	2	-6	340	200	474	2.21	0.39	1.0000 
	1	-13	-6	150	141	239	1.84	-1.73	1.0000 
	13	1	6	59	128	114	1.75	1.73	1.0000 
	1	-13	6	70	112	126	1.76	1.34	1.0000 
	13	1	-6	223	198	335	1.74	-2.22	1.0000 
	0	-13	-6	175	142	168	0.49	-1.85	1.0000 
	0	-13	6	144	136	143	0.34	1.93	1.0000 
	13	0	6	11	88	4	0.28	1.95	1.0000 
	13	0	-6	212	149	204	0.53	-1.89	1.0000 
	13	-1	-6	12	123	-67	1.96	-1.21	1.0000 
	-1	-13	-6	60	135	117	1.72	-2.06	1.0000 
	-1	-13	6	311	183	431	1.76	1.75	1.0000 
	13	-1	6	51	118	102	1.68	1.91	1.0000 
	-2	-13	6	401	179	537	2.07	-0.58	1.0000 
	13	-2	-6	321	199	443	1.7	2.36	1.0000 
	-2	-13	-6	510	215	656	2.03	-0.18	1.0000 
	13	-2	6	529	233	678	1.54	-2.52	1.0000 
	13	-3	-6	180	160	245	0.1	3.01	1.0000 
	-3	-13	6	344	178	518	0.43	-4.34	1.0000 
	13	-3	6	29	105	59	0.78	-4.53	1.0000 
	-3	-13	-6	336	163	467	0.44	3.76	1.0000 
	-4	-13	-6	9	95	36	-0.41	2.29	1.0000 
	13	-4	-6	2	107	6	-0.4	-2.06	1.0000 
	13	-4	6	317	174	361	0.27	0.94	1.0000 
	-4	-13	6	15	117	-59	-0.01	-2.54	1.0000 
	13	-5	-6	42	138	45	-0.01	-0.98	1.0000 
	13	-5	6	82	165	90	-0.01	1.31	1.0000 
	-5	-13	-6	36	95	42	-0.3	-0.36	1.0000 
	-5	-13	6	407	174	420	-0.16	0.49	1.0000 
	13	-6	-6	255	203	271	-0.31	2.01	1.0000 
	-6	-13	-6	215	129	208	-0.2	-0.53	1.0000 
	13	-7	-6	11	108	-51	-1.88	-1.14	1.0000 
	14	5	6	0	85	-45	-0.27	0.07	1.0000 
	14	4	6	73	106	93	0.69	0.52	1.0000 
	4	-14	-6	5	94	8	0.47	-1.03	1.0000 
	14	3	6	158	118	166	-0.19	0.2	1.0000 
	3	-14	-6	0	88	-188	0.16	0.44	1.0000 
	14	2	6	275	150	305	-0.51	-0.8	1.0000 
	2	-14	-6	270	145	307	-0.64	0.89	1.0000 
	2	-14	6	357	134	407	-0.71	-1.14	1.0000 
	1	-14	-6	85	119	105	0.63	-0.54	1.0000 
	14	1	6	3	105	-122	1.11	0.02	1.0000 
	14	1	-6	31	127	51	1.03	0.18	1.0000 
	0	-14	-6	180	131	148	1.49	-1.25	1.0000 
	14	0	-6	61	107	39	1.55	-1.22	1.0000 
	0	-14	6	7	100	-37	1.47	1.05	1.0000 
	14	0	6	7	91	-7	1.42	1.12	1.0000 
	14	-1	6	16	117	23	0.53	0.28	1.0000 
	-1	-14	-6	22	111	40	1.07	0.08	1.0000 
	14	-1	-6	143	113	174	0.81	-0.38	1.0000 
	-1	-14	6	97	123	133	1.13	-0.22	1.0000 
	-2	-14	-6	100	116	119	-0.54	0.9	1.0000 
	-2	-14	6	461	175	506	-0.57	-1.01	1.0000 
	14	-2	6	315	200	365	-0.81	-0.97	1.0000 
	14	-2	-6	122	148	145	-0.58	1.05	1.0000 
	14	-3	-6	0	152	-4	0.06	0.14	1.0000 
	-1	-1	7	11826	617	16131	-12.15	1.02	1.0000 
	1	1	-7	11577	704	15840	-12.15	-1.02	1.0000 
	-1	-1	-7	14059	713	18697	-12.12	-0.36	1.0000 
	-1	1	-7	11556	665	16248	13.37	0.96	1.0000 
	1	-2	-7	26782	1106	29192	-4.23	-6.83	1.0000 
	-2	-1	7	26652	1060	29623	6.03	-2.96	1.0000 
	-2	-1	-7	30982	1189	34294	6.25	3.61	1.0000 
	2	1	-7	26981	1128	29969	6.03	2.96	1.0000 
	2	1	-7	25821	1185	28746	6.03	2.96	1.0000 
	1	-2	7	28804	1009	31251	-4.38	4.46	1.0000 
	-1	2	-7	27173	1114	29550	-4.38	-4.46	1.0000 
	1	-2	-7	28479	1185	30965	-4.23	-6.83	1.0000 
	2	-1	-7	31724	1219	34452	-4.52	-5.93	1.0000 
	1	2	-7	27130	1150	30259	6.28	2.62	1.0000 
	-2	1	-7	27236	1193	29639	-4.33	-5.42	1.0000 
	2	-1	-7	32441	1238	35200	-4.52	-5.93	1.0000 
	-1	-2	7	27982	1101	31159	6.28	-2.62	1.0000 
	-1	-2	-7	28533	1233	31630	6.1	4.05	1.0000 
	-2	-2	7	36740	1398	40543	-6.79	-8.92	1.0000 
	2	2	-7	36417	1463	40203	-6.79	8.92	1.0000 
	2	-2	7	35614	1306	40770	7.3	11.25	1.0000 
	2	2	-7	36783	1587	40588	-6.79	8.92	1.0000 
	2	-2	-7	35712	1509	40906	7.35	-11.28	1.0000 
	2	2	7	36631	1486	40487	-6.89	-9.01	1.0000 
	-2	-2	-7	38819	1542	42791	-6.89	9.01	1.0000 
	2	-2	-7	36412	1548	41658	7.35	-11.28	1.0000 
	-3	-2	-7	26118	810	23904	-5.03	2.85	1.0000 
	2	-3	7	23236	774	21726	3.23	1.61	1.0000 
	-3	-2	-7	26176	953	23960	-5.03	2.85	1.0000 
	3	2	7	24409	900	22270	-5.03	-2.85	1.0000 
	2	-3	-7	24794	886	23269	3.21	-0.91	1.0000 
	2	-3	-7	25043	955	23510	3.21	-0.91	1.0000 
	-3	-2	7	24465	865	22297	-5.23	-3.9	1.0000 
	3	2	-7	24575	976	22402	-5.23	3.9	1.0000 
	1	-3	-7	25483	759	19661	-12.94	-0.62	1.0000 
	-3	-1	7	25634	777	19904	12.78	-0.97	1.0000 
	-3	-1	-7	27383	860	21615	12.39	0.83	1.0000 
	-3	-1	-7	28333	707	22460	12.39	0.83	1.0000 
	3	1	-7	25483	870	19771	12.78	0.97	1.0000 
	1	-3	7	25987	723	19938	-13.33	0.58	1.0000 
	1	-3	-7	26560	868	20608	-12.94	-0.62	1.0000 
	3	-1	-7	28079	852	21876	-13.1	-0.68	1.0000 
	-1	-3	-7	25593	856	19977	12.53	1.08	1.0000 
	-1	-3	7	25506	756	19854	12.63	-0.98	1.0000 
	1	3	-7	25220	739	19602	12.63	0.98	1.0000 
	3	-2	7	24690	721	23133	3.21	1.75	1.0000 
	3	-2	-7	23421	904	22044	3	-0.58	1.0000 
	2	3	-7	25287	976	23078	-5.2	3.62	1.0000 
	-2	-3	-7	23002	919	20925	-5.07	3.18	1.0000 
	-2	-3	7	24158	842	21999	-5.2	-3.62	1.0000 
	2	3	-7	24749	823	22564	-5.2	3.62	1.0000 
	2	3	7	25288	839	23109	-5.07	-3.18	1.0000 
	3	3	-7	18693	1073	23686	-11.83	4.73	1.0000 
	-3	-3	7	20086	954	25253	-11.83	-4.73	1.0000 
	3	-3	-7	20817	1061	26424	11.62	-5.22	1.0000 
	3	3	7	19391	974	24114	-11.03	-3.99	1.0000 
	-3	-3	-7	20326	1038	25157	-11.03	3.99	1.0000 
	3	-3	-7	20772	1009	26374	11.62	-5.22	1.0000 
	3	-3	7	19211	833	25042	12.44	5.92	1.0000 
	-3	-3	-7	20854	913	25744	-11.03	3.99	1.0000 
	3	-4	7	7044	275	6320	3.45	3.61	1.0000 
	-4	-3	7	6781	367	6260	-1.99	-1.94	1.0000 
	-4	-3	-7	5688	295	5208	-1.95	2.74	1.0000 
	4	3	7	7014	345	6482	-1.95	-2.74	1.0000 
	3	-4	-7	6888	394	6161	3.71	-4.84	1.0000 
	-4	-3	-7	6429	379	5919	-1.95	2.74	1.0000 
	3	-4	-7	6822	328	6099	3.71	-4.84	1.0000 
	4	3	-7	6375	403	5870	-1.99	1.94	1.0000 
	2	-4	7	6281	256	5047	-5.93	-2.68	1.0000 
	-4	-2	-7	7318	371	6154	4.65	-1.03	1.0000 
	-4	-2	-7	6711	262	5598	4.65	-1.03	1.0000 
	2	-4	-7	6776	353	5438	-6.03	1.82	1.0000 
	-4	-2	7	5962	317	4924	4.69	0.39	1.0000 
	4	2	-7	6308	360	5239	4.69	-0.39	1.0000 
	4	2	7	6171	312	5106	4.65	1.03	1.0000 
	2	-4	-7	6401	266	5102	-6.03	1.82	1.0000 
	1	-4	7	14276	570	14807	-1.46	0.34	1.0000 
	-4	-1	7	14376	622	14476	0.35	-2.11	1.0000 
	-4	-1	-7	16070	533	16170	0.3	0.86	1.0000 
	4	1	-7	14071	701	14170	0.35	2.11	1.0000 
	1	-4	-7	14801	570	15283	-1.38	2.34	1.0000 
	1	-4	-7	13502	684	13961	-1.38	2.34	1.0000 
	4	1	7	15332	674	15430	0.3	-0.86	1.0000 
	-1	-4	7	15292	633	15354	0.24	-2.68	1.0000 
	4	-1	-7	15886	727	16420	-1.45	1.53	1.0000 
	-1	-4	-7	15274	715	15458	0.51	0.43	1.0000 
	-2	-4	7	6260	308	5215	4.55	0.8	1.0000 
	2	4	7	6131	233	5042	4.84	0.54	1.0000 
	-2	-4	-7	6194	334	5099	4.84	-0.54	1.0000 
	2	4	-7	6044	213	5018	4.55	-0.8	1.0000 
	-2	-4	-7	6286	306	5183	4.84	-0.54	1.0000 
	4	-2	-7	6296	317	4986	-6.24	2.45	1.0000 
	4	-3	7	6959	249	6235	3.48	3.65	1.0000 
	3	4	7	7177	325	6619	-2.03	-2.89	1.0000 
	-3	-4	7	7267	381	6737	-1.96	-1.84	1.0000 
	4	-3	-7	7093	377	6415	3.42	-4.63	1.0000 
	-3	-4	-7	7535	361	6964	-2.03	2.89	1.0000 
	-3	-4	-7	8004	424	7415	-2.03	2.89	1.0000 
	3	4	-7	7123	435	6598	-1.96	1.84	1.0000 
	4	4	7	3812	308	5352	-7.75	-2.49	1.0000 
	-4	-4	-7	3684	306	5200	-7.75	2.49	1.0000 
	4	-4	-7	3373	327	5218	9.21	-2.91	1.0000 
	-4	-4	7	3849	344	5309	-7.35	-2.24	1.0000 
	-4	-4	-7	3417	349	4881	-7.75	2.49	1.0000 
	4	4	-7	3550	383	4956	-7.35	2.24	1.0000 
	4	-4	7	3590	237	5330	8.45	3.22	1.0000 
	4	-5	7	291	85	462	2.84	1.35	1.0000 
	4	-5	-7	276	153	470	3.26	-1.52	1.0000 
	-5	-4	-7	434	122	589	-2.23	-1	1.0000 
	4	-5	-7	359	123	578	3.26	-1.52	1.0000 
	-5	-4	7	510	163	665	-1.99	1.45	1.0000 
	5	4	-7	327	158	453	-1.99	-1.45	1.0000 
	5	4	7	398	121	547	-2.23	1	1.0000 
	5	3	7	1385	192	1667	2.36	-1.77	1.0000 
	3	-5	-7	1360	221	1687	-2.78	1.36	1.0000 
	3	-5	7	1361	144	1733	-3.12	-1.76	1.0000 
	5	3	-7	1561	247	1889	2.64	0	1.0000 
	-5	-3	-7	1289	153	1561	2.36	1.77	1.0000 
	-5	-3	7	1386	215	1696	2.64	0	1.0000 
	3	-5	-7	1259	156	1574	-2.78	1.36	1.0000 
	2	-5	7	2479	175	2128	-2.44	-0.2	1.0000 
	2	-5	-7	2140	226	1833	-2.3	-0.05	1.0000 
	2	-5	-7	2581	161	2243	-2.3	-0.05	1.0000 
	5	2	7	2829	217	2497	2.15	-1.06	1.0000 
	-5	-2	-7	2677	161	2355	2.15	1.06	1.0000 
	-5	-2	7	2561	231	2248	2.13	-0.28	1.0000 
	5	2	-7	2783	270	2457	2.13	0.28	1.0000 
	5	1	-7	1338	246	2331	-7.79	1.41	1.0000 
	5	1	7	1695	236	2761	-7.59	-0.63	1.0000 
	1	-5	-7	1539	154	2578	7.68	-1	1.0000 
	1	-5	-7	1569	251	2617	7.68	-1	1.0000 
	-5	-1	-7	1489	142	2497	-7.59	0.63	1.0000 
	1	-5	7	1334	185	2313	7.67	1.76	1.0000 
	-1	-5	-7	1793	254	2906	-7.71	0.65	1.0000 
	-1	-5	7	1629	225	2711	-7.79	-1.4	1.0000 
	5	-1	-7	1595	253	2591	7.3	-0.79	1.0000 
	-2	-5	7	2524	213	2206	2.19	-0.99	1.0000 
	-2	-5	-7	2604	224	2282	2.17	0.4	1.0000 
	-2	-5	-7	2370	213	2063	2.17	0.4	1.0000 
	5	-2	-7	2861	233	2490	-2.39	0.24	1.0000 
	5	-3	-7	1408	210	1731	-2.72	0.79	1.0000 
	-3	-5	-7	1666	223	1968	2.36	0.97	1.0000 
	3	5	-7	1417	99	1744	2.74	0.91	1.0000 
	3	5	7	1514	139	1802	2.36	-0.97	1.0000 
	-3	-5	7	1542	217	1883	2.74	-0.91	1.0000 
	3	5	-7	1280	235	1592	2.74	0.91	1.0000 
	-3	-5	-7	1226	188	1486	2.36	0.97	1.0000 
	5	-3	7	1350	89	1737	-3.23	-2.14	1.0000 
	-4	-5	-7	605	150	784	-2.18	-1.13	1.0000 
	4	5	-7	736	203	923	-2.05	-1.22	1.0000 
	-4	-5	7	201	131	302	-2.05	1.22	1.0000 
	4	5	7	377	100	521	-2.18	1.13	1.0000 
	-4	-5	-7	315	140	447	-2.18	-1.13	1.0000 
	5	-4	7	448	72	644	2.75	1.01	1.0000 
	5	-4	-7	218	123	391	3.18	-1.8	1.0000 
	-5	-5	-7	241	131	245	0.08	0.15	1.0000 
	5	-5	-7	29	78	119	2.87	-5.63	1.0000 
	5	5	7	283	92	287	0.08	-0.15	1.0000 
	5	5	-7	148	125	159	0.21	-0.63	1.0000 
	-5	-5	7	174	122	186	0.21	0.63	1.0000 
	-5	-5	-7	352	121	357	0.08	0.15	1.0000 
	6	5	-7	1	86	-44	-0.51	0.06	1.0000 
	-6	-5	-7	37	75	21	-0.94	0.75	1.0000 
	-6	-5	7	1	92	-108	-0.51	-0.06	1.0000 
	5	-6	-7	140	73	84	1.79	0.1	1.0000 
	6	5	7	128	74	98	-0.94	-0.75	1.0000 
	4	-6	-7	4644	368	4704	-0.24	-0.53	1.0000 
	-6	-4	-7	3094	252	3381	1.36	-2.51	1.0000 
	4	-6	7	3619	236	3743	-0.66	0.27	1.0000 
	-6	-4	7	3531	324	3890	1.48	3.39	1.0000 
	6	4	7	3109	286	3397	1.36	2.51	1.0000 
	6	4	-7	3316	357	3664	1.48	-3.39	1.0000 
	4	-6	-7	3459	273	3511	-0.24	-0.53	1.0000 
	-6	-3	7	12507	610	12001	1.55	0.26	1.0000 
	-6	-3	-7	13145	534	12629	1.53	-0.11	1.0000 
	6	3	7	13484	653	12961	1.53	0.11	1.0000 
	3	-6	7	12898	536	12389	-1.45	-0.93	1.0000 
	3	-6	-7	13417	663	12919	-1.4	0.72	1.0000 
	3	-6	-7	12775	579	12289	-1.4	0.72	1.0000 
	6	3	-7	13256	711	12735	1.55	-0.26	1.0000 
	2	-6	-7	16619	699	16728	-0.21	-1.08	1.0000 
	6	2	-7	16610	855	16943	0.96	2.05	1.0000 
	2	-6	7	16726	679	16855	-0.28	0.88	1.0000 
	2	-6	-7	16939	807	17049	-0.21	-1.08	1.0000 
	-6	-2	7	16758	742	17092	0.96	-2.05	1.0000 
	-6	-2	-7	16178	632	16535	1.06	3.1	1.0000 
	6	2	7	16165	797	16521	1.06	-3.1	1.0000 
	6	1	7	1161	187	1121	0.17	-1.82	1.0000 
	6	1	-7	809	184	786	0.09	1.11	1.0000 
	1	-6	-7	469	143	502	0.21	-1.12	1.0000 
	1	-6	7	651	138	666	0.01	0.72	1.0000 
	-6	-1	-7	994	89	956	0.17	1.82	1.0000 
	-1	-6	7	751	146	727	0.12	-1.05	1.0000 
	6	-1	-7	950	184	971	-0.1	-1.14	1.0000 
	-1	-6	-7	602	153	586	-0.03	1.84	1.0000 
	6	-2	-7	14459	772	14589	-0.27	-1.27	1.0000 
	-2	-6	7	16504	718	16819	0.92	-2.33	1.0000 
	-2	-6	-7	16136	717	16475	1.01	2.82	1.0000 
	-2	-6	-7	15581	754	15914	1.01	2.82	1.0000 
	-3	-6	-7	12930	634	12442	1.46	-0.17	1.0000 
	-3	-6	-7	13197	602	12704	1.46	-0.17	1.0000 
	3	6	7	12240	541	11765	1.46	0.17	1.0000 
	6	-3	-7	12330	654	11871	-1.35	0.73	1.0000 
	-3	-6	7	13180	610	12684	1.47	0.21	1.0000 
	-4	-6	-7	3274	289	3590	1.39	-3	1.0000 
	4	6	-7	3135	341	3455	1.5	-2.73	1.0000 
	-4	-6	-7	3416	314	3739	1.39	-3	1.0000 
	-4	-6	7	2921	299	3230	1.5	2.73	1.0000 
	4	6	7	3102	236	3410	1.39	3	1.0000 
	6	-4	-7	3903	324	3962	-0.25	-0.63	1.0000 
	6	-5	-7	8	62	-42	1.94	0.06	1.0000 
	5	6	7	27	44	17	-0.69	-0.62	1.0000 
	5	6	-7	12	102	6	-0.6	0.54	1.0000 
	-5	-6	-7	11	96	5	-0.69	0.62	1.0000 
	-5	-6	7	40	119	29	-0.6	-0.54	1.0000 
	-5	-6	-7	191	101	163	-0.69	0.62	1.0000 
	6	6	-7	3519	394	3989	-2.64	2.61	1.0000 
	-6	-6	-7	3654	321	4142	-2.69	2.32	1.0000 
	-6	-6	7	2957	324	3387	-2.64	-2.61	1.0000 
	6	-6	-7	3593	329	3917	1.79	0.59	1.0000 
	6	6	7	3547	307	4027	-2.69	-2.32	1.0000 
	7	6	7	3024	286	3173	0.94	0.47	1.0000 
	6	-7	-7	3285	309	3336	-0.4	-1.15	1.0000 
	-7	-6	7	2582	329	2734	0.96	-0.31	1.0000 
	7	6	-7	3010	383	3174	0.96	0.31	1.0000 
	-7	-6	-7	2734	270	2875	0.94	-0.47	1.0000 
	-7	-5	7	236	139	200	-1.23	-1.52	1.0000 
	7	5	-7	421	166	375	-1.23	1.52	1.0000 
	5	-7	-7	154	95	161	0.88	2.83	1.0000 
	5	-7	-7	302	152	320	0.88	2.83	1.0000 
	-7	-5	-7	294	110	243	-1.21	0.82	1.0000 
	7	5	7	282	101	232	-1.21	-0.82	1.0000 
	4	-7	7	13416	576	13001	-1.32	-1.42	1.0000 
	7	4	-7	13883	791	13904	0.11	2.01	1.0000 
	-7	-4	-7	12777	581	12774	0.14	1.66	1.0000 
	4	-7	-7	13744	654	13390	-1.12	1.36	1.0000 
	4	-7	-7	13495	716	13144	-1.12	1.36	1.0000 
	7	4	7	12397	688	12394	0.14	-1.66	1.0000 
	-7	-4	7	13382	676	13402	0.11	-2.01	1.0000 
	7	3	-7	35506	1566	35234	-0.46	-0.33	1.0000 
	3	-7	7	35311	1278	34795	0.84	1.2	1.0000 
	7	3	7	34941	1498	34565	-0.59	1.37	1.0000 
	-7	-3	7	36374	1369	36099	-0.46	0.33	1.0000 
	3	-7	-7	36486	1475	35787	1.13	-1.72	1.0000 
	3	-7	-7	36558	1397	35858	1.13	-1.72	1.0000 
	-7	-3	-7	35532	1250	35153	-0.59	-1.37	1.0000 
	7	2	-7	36713	1611	36670	0.16	-1.22	1.0000 
	2	-7	-7	38068	1531	39232	1.89	-1.19	1.0000 
	7	2	7	35956	1552	35995	-0.01	0.77	1.0000 
	-7	-2	7	36720	1394	36677	0.16	1.22	1.0000 
	-7	-2	-7	37186	1270	37225	-0.01	-0.77	1.0000 
	2	-7	7	34967	1333	36037	1.84	0.8	1.0000 
	7	1	-7	6541	510	7298	3.06	-0.15	1.0000 
	1	-7	-7	6162	445	6806	-2.61	0.67	1.0000 
	1	-7	7	6146	405	6765	-2.45	-1.18	1.0000 
	7	1	7	7479	506	8332	3.14	-0.79	1.0000 
	7	-1	7	6061	488	6657	-2.36	-1.36	1.0000 
	7	-1	-7	7871	530	8623	-2.74	0.41	1.0000 
	-1	-7	-7	6844	468	7664	3.15	0.82	1.0000 
	-1	-7	7	6021	422	6778	3.19	0.19	1.0000 
	-1	-7	-7	6233	449	7017	3.15	0.82	1.0000 
	-2	-7	-7	37130	1353	37044	0.19	-0.64	1.0000 
	-2	-7	7	34090	1311	34129	0.02	1.23	1.0000 
	7	-2	-7	31952	1477	32873	1.62	-1.21	1.0000 
	-2	-7	-7	34462	1407	34379	0.19	-0.64	1.0000 
	7	-3	-7	30874	1431	30328	0.98	-0.93	1.0000 
	-3	-7	7	34580	1301	34209	-0.61	0.96	1.0000 
	-3	-7	-7	32837	1299	32570	-0.44	-0.81	1.0000 
	-3	-7	-7	36151	1385	35871	-0.44	-0.81	1.0000 
	7	-4	-7	13141	723	12790	-1.14	1.4	1.0000 
	-4	-7	-7	12130	650	12162	0.08	2.1	1.0000 
	-4	-7	-7	14726	700	14762	0.08	2.1	1.0000 
	-4	-7	7	12531	662	12514	0.18	-1.58	1.0000 
	7	-5	-7	250	130	238	1.08	2.21	1.0000 
	-5	-7	-7	360	133	301	-1.36	1.1	1.0000 
	-5	-7	-7	360	129	301	-1.36	1.1	1.0000 
	5	7	-7	324	147	279	-1.25	1.39	1.0000 
	-5	-7	7	111	139	83	-1.25	-1.39	1.0000 
	-6	-7	7	2719	342	2850	0.84	0.06	1.0000 
	-6	-7	-7	2760	284	2922	1.03	-0.15	1.0000 
	6	7	-7	3179	395	3320	0.84	-0.06	1.0000 
	7	-6	-7	3336	328	3346	-0.17	-1.24	1.0000 
	-7	-7	-7	7164	442	6853	1.35	-0.72	1.0000 
	7	-7	-7	6878	496	6958	0.29	-0.26	1.0000 
	7	7	-7	6341	525	6050	1.49	-1.66	1.0000 
	-7	-7	7	6139	453	5853	1.49	1.66	1.0000 
	8	7	-7	7908	624	7440	-1.7	-0.89	1.0000 
	-8	-7	-7	9779	525	9211	-1.87	-0.8	1.0000 
	-8	-7	7	9214	575	8708	-1.7	0.89	1.0000 
	7	-8	-7	10028	649	9636	1.85	3.55	1.0000 
	8	6	-7	4911	450	4629	1.44	-0.69	1.0000 
	8	6	7	4502	362	4255	1.3	0.53	1.0000 
	-8	-6	-7	4396	322	4152	1.3	-0.53	1.0000 
	6	-8	-7	3832	380	3745	-0.48	-0.06	1.0000 
	-8	-6	7	5126	406	4838	1.44	0.69	1.0000 
	8	5	-7	122	119	91	-1.04	1.23	1.0000 
	-8	-5	7	205	131	166	-1.04	-1.23	1.0000 
	8	5	7	6	54	-85	-1.33	-1.04	1.0000 
	-8	-5	-7	6	71	-37	-1.33	1.04	1.0000 
	5	-8	-7	45	108	26	1.12	-0.98	1.0000 
	8	4	-7	8785	602	8320	-2.19	4.03	1.0000 
	8	4	7	8290	534	7876	-1.99	-3.66	1.0000 
	-8	-4	7	8158	509	7709	-2.19	-4.03	1.0000 
	4	-8	-7	7888	518	7560	1.09	-2.34	1.0000 
	-8	-4	-7	8800	434	8374	-1.99	3.66	1.0000 
	4	-8	7	8610	438	8288	1.06	1.59	1.0000 
	-8	-3	7	26184	1101	26134	0.13	0.3	1.0000 
	8	3	7	26404	1228	26229	0.38	0.29	1.0000 
	8	3	-7	25644	1282	25594	0.13	-0.3	1.0000 
	3	-8	-7	28028	1202	28255	0.28	-1.95	1.0000 
	3	-8	7	25752	1034	25939	0.26	1.57	1.0000 
	2	-8	7	23717	926	23721	-0.15	-2.06	1.0000 
	8	2	-7	20246	1101	20814	0.78	-5	1.0000 
	8	2	7	20035	1053	20518	0.59	4.99	1.0000 
	2	-8	-7	23446	1041	23358	0.03	2.42	1.0000 
	8	1	7	6255	463	6226	0.6	3.47	1.0000 
	1	-8	7	6378	402	6246	-0.35	-3.13	1.0000 
	1	-8	-7	5836	413	5675	-0.48	3.61	1.0000 
	8	1	-7	6631	500	6589	0.58	-3.02	1.0000 
	8	-1	-7	6363	478	6188	-0.52	3.42	1.0000 
	8	-1	7	5695	459	5563	-0.37	-3.32	1.0000 
	-1	-8	-7	5583	407	5562	0.53	-3.29	1.0000 
	-1	-8	7	6247	413	6173	0.71	3	1.0000 
	-1	-8	-7	6289	424	6269	0.53	-3.29	1.0000 
	-2	-8	7	23318	969	23902	0.72	4.95	1.0000 
	8	-2	7	19914	1086	19842	0.01	-2.26	1.0000 
	8	-2	-7	21136	1083	21129	-0.14	2.19	1.0000 
	-2	-8	-7	22699	1010	23215	0.6	-4.88	1.0000 
	-2	-8	-7	22893	996	23411	0.6	-4.88	1.0000 
	-3	-8	7	25517	1100	25384	0.34	0.76	1.0000 
	8	-3	-7	27077	1268	27289	0.3	-1.55	1.0000 
	-3	-8	-7	25975	1114	25888	0.19	-0.15	1.0000 
	-3	-8	-7	27349	1158	27260	0.19	-0.15	1.0000 
	-4	-8	-7	8264	514	7832	-2.13	4.11	1.0000 
	-4	-8	7	8736	533	8282	-2.03	-3.22	1.0000 
	8	-4	-7	8677	579	8389	0.91	-1.87	1.0000 
	-4	-8	-7	9267	524	8812	-2.13	4.11	1.0000 
	8	-5	-7	32	101	17	1.04	-1.17	1.0000 
	-5	-8	-7	109	114	74	-1.25	0.98	1.0000 
	-5	-8	7	85	125	56	-1.15	-1.05	1.0000 
	-5	-8	-7	6	96	-104	-1.25	0.98	1.0000 
	-6	-8	-7	4462	356	4196	1.46	-1	1.0000 
	6	8	-7	5553	469	5254	1.41	-0.48	1.0000 
	-6	-8	7	4571	384	4300	1.41	0.48	1.0000 
	8	-6	-7	4017	393	3949	-0.36	-0.03	1.0000 
	-7	-8	-7	10604	587	10037	-1.83	-0.39	1.0000 
	-7	-8	7	11209	644	10594	-1.85	1.33	1.0000 
	7	8	-7	10024	702	9442	-1.85	-1.33	1.0000 
	8	-7	-7	9530	637	9133	1.89	3.46	1.0000 
	8	8	-7	8434	690	8429	0.04	-0.24	1.0000 
	-8	-8	-7	10137	595	10200	-0.21	0	1.0000 
	-8	-8	7	10626	644	10620	0.04	0.24	1.0000 
	-9	-8	-7	3768	358	4198	2.42	-1.93	1.0000 
	-9	-8	7	4183	412	4622	2.33	1.5	1.0000 
	9	8	-7	4762	509	5230	2.33	-1.5	1.0000 
	8	-9	-7	3637	469	3965	-1.81	-0.29	1.0000 
	7	-9	-7	4932	462	5020	0.27	1.37	1.0000 
	9	7	-7	5001	504	5263	-1.3	-0.93	1.0000 
	-9	-7	7	5147	441	5413	-1.3	0.93	1.0000 
	-9	-7	-7	4663	378	4969	-1.56	-0.95	1.0000 
	-9	-6	7	3726	389	3577	-0.92	-1.14	1.0000 
	9	6	-7	3752	449	3603	-0.92	1.14	1.0000 
	6	-9	-7	3851	391	3768	0.57	1.3	1.0000 
	9	5	-7	1574	307	1476	0.84	0.25	1.0000 
	-9	-5	7	1030	221	951	0.84	-0.25	1.0000 
	5	-9	-7	1218	236	1159	-0.57	-0.91	1.0000 
	9	5	7	1402	242	1321	0.73	0.38	1.0000 
	9	4	7	265	136	282	-0.24	0.37	1.0000 
	9	4	-7	287	156	298	-0.04	-0.48	1.0000 
	4	-9	-7	97	129	159	0.46	-3.01	1.0000 
	-9	-4	7	438	169	452	-0.04	0.48	1.0000 
	9	3	7	4134	388	4077	-0.44	-1.1	1.0000 
	-9	-3	7	4575	367	4536	-0.26	-0.51	1.0000 
	3	-9	-7	4022	361	4013	0.19	0.99	1.0000 
	3	-9	7	4373	328	4343	0.17	-0.13	1.0000 
	9	3	-7	3852	410	3816	-0.26	0.51	1.0000 
	2	-9	7	3159	282	3220	-0.14	-2.55	1.0000 
	2	-9	-7	3109	306	3185	-0.11	2.82	1.0000 
	9	2	7	3018	363	3183	-1.14	1.01	1.0000 
	9	2	-7	2659	381	2832	-1.26	-1.04	1.0000 
	9	1	7	1413	253	1395	-0.01	1.22	1.0000 
	1	-9	7	1238	221	1264	-0.29	0.3	1.0000 
	1	-9	-7	728	177	746	-0.23	-0.03	1.0000 
	9	1	-7	1167	262	1146	-0.08	-0.97	1.0000 
	1	-9	-7	1073	237	1095	-0.23	-0.03	1.0000 
	-1	-9	-7	1071	193	1050	-0.07	-1.23	1.0000 
	9	-1	-7	1329	274	1370	-0.33	0.25	1.0000 
	9	-1	7	1367	274	1380	-0.19	0.44	1.0000 
	-1	-9	7	1237	237	1234	0.1	1.04	1.0000 
	-1	-9	-7	1341	255	1318	-0.07	-1.23	1.0000 
	-2	-9	7	2665	312	2809	-1.07	1.05	1.0000 
	9	-2	7	2203	338	2245	-0.26	-2.86	1.0000 
	-2	-9	-7	2694	332	2890	-1.39	-0.95	1.0000 
	9	-2	-7	2609	348	2685	0.01	2.51	1.0000 
	-2	-9	-7	2498	273	2687	-1.39	-0.95	1.0000 
	9	-3	7	3959	449	3946	0.19	-0.84	1.0000 
	-3	-9	-7	4736	386	4665	-0.43	0.62	1.0000 
	-3	-9	7	3939	360	3898	-0.39	-1.24	1.0000 
	9	-3	-7	3827	406	3782	0.29	0.38	1.0000 
	-4	-9	7	335	176	354	-0.15	0.57	1.0000 
	-4	-9	-7	348	154	360	-0.1	-0.33	1.0000 
	9	-4	7	387	209	507	0.29	3.03	1.0000 
	9	-4	-7	185	165	263	0.38	-2.8	1.0000 
	9	-5	-7	1697	295	1626	-0.59	-0.78	1.0000 
	-5	-9	7	1443	275	1362	0.72	0.57	1.0000 
	-5	-9	-7	2110	298	2019	0.67	0.03	1.0000 
	-6	-9	7	3481	387	3306	-1.19	-1.92	1.0000 
	-6	-9	-7	3817	349	3645	-1	0.73	1.0000 
	9	-6	-7	3638	420	3556	0.56	1.15	1.0000 
	-7	-9	-7	5375	438	5653	-1.36	-1.3	1.0000 
	7	9	-7	5168	519	5496	-1.55	-0.48	1.0000 
	-7	-9	7	4935	450	5255	-1.55	0.48	1.0000 
	9	-7	-7	5561	505	5668	0.34	1.31	1.0000 
	8	9	-7	4462	501	4880	2.2	-2.16	1.0000 
	-8	-9	-7	4654	406	5119	2.34	-1.51	1.0000 
	-8	-9	7	4188	423	4593	2.2	2.16	1.0000 
	-9	-9	-7	1697	281	1750	-0.41	-0.18	1.0000 
	9	9	-7	1329	315	1399	-0.58	-0.49	1.0000 
	-9	-9	7	1230	264	1297	-0.58	0.49	1.0000 
	10	9	-7	2	112	42	-3.3	0.18	1.0000 
	9	-10	-7	125	133	304	4.17	-0.26	1.0000 
	-10	-9	7	38	105	123	-3.3	-0.18	1.0000 
	10	8	-7	31	103	0	-0.39	-3.67	1.0000 
	-10	-8	7	31	104	-60	-0.39	3.67	1.0000 
	8	-10	-7	105	159	252	1.28	-3.62	1.0000 
	10	7	-7	5	81	-4	0.57	-1.39	1.0000 
	7	-10	-7	8	105	-12	-0.61	-1.78	1.0000 
	-10	-7	7	30	91	25	0.57	1.39	1.0000 
	10	6	-7	74	94	65	-0.41	1.24	1.0000 
	-10	-6	7	222	137	208	-0.41	-1.24	1.0000 
	6	-10	-7	11	106	3	0.52	1.83	1.0000 
	-10	-5	7	138	136	189	1.21	-1.42	1.0000 
	10	5	-7	8	96	-22	1.21	1.42	1.0000 
	5	-10	-7	218	134	258	-0.87	0.2	1.0000 
	10	5	7	277	136	342	1.21	-0.37	1.0000 
	-10	-4	7	22	86	23	0.06	-0.19	1.0000 
	10	4	-7	0	89	-70	0.06	0.19	1.0000 
	10	4	7	180	105	165	-0.42	-0.22	1.0000 
	4	-10	-7	85	101	75	0.36	-0.36	1.0000 
	3	-10	-7	383	152	382	-0.22	1.72	1.0000 
	10	3	-7	236	154	218	0.47	0.9	1.0000 
	3	-10	7	290	137	287	-0.15	-1.08	1.0000 
	10	3	7	449	161	449	0.11	-1.11	1.0000 
	2	-10	-7	3	110	-114	0.87	-0.73	1.0000 
	10	2	7	19	85	41	-1.4	-0.74	1.0000 
	2	-10	7	29	104	49	0.85	1.09	1.0000 
	10	2	-7	64	141	102	-1.42	0.85	1.0000 
	10	1	7	72	133	116	-1.55	-0.13	1.0000 
	10	1	-7	40	137	71	-1.41	-0.08	1.0000 
	1	-10	-7	8	127	41	0.97	-2.17	1.0000 
	1	-10	7	15	116	-10	0.82	2.47	1.0000 
	10	-1	-7	105	169	190	0.8	-2.24	1.0000 
	-1	-10	7	92	143	141	-1.52	0.12	1.0000 
	10	-1	7	91	123	172	0.98	2.2	1.0000 
	-1	-10	-7	32	121	61	-1.49	0.03	1.0000 
	10	-2	-7	3	94	-62	0.89	-0.77	1.0000 
	-2	-10	-7	5	115	-50	-1.43	0.53	1.0000 
	10	-2	7	45	100	69	0.84	1.03	1.0000 
	-2	-10	7	22	121	44	-1.33	-1.06	1.0000 
	-3	-10	7	420	174	422	0.13	-1.45	1.0000 
	-3	-10	-7	414	170	392	0.45	0.94	1.0000 
	10	-3	7	429	194	424	-0.25	-1.55	1.0000 
	10	-3	-7	263	168	256	-0.24	1.07	1.0000 
	10	-4	7	137	146	126	0.33	0.02	1.0000 
	10	-4	-7	30	120	23	0.47	-0.66	1.0000 
	-4	-10	7	10	148	6	-0.48	-0.05	1.0000 
	-4	-10	-7	55	117	55	-0.1	0.55	1.0000 
	10	-5	-7	195	168	228	-0.74	0.39	1.0000 
	-5	-10	7	142	159	183	0.99	-1.07	1.0000 
	10	-5	7	69	177	94	-0.94	0.01	1.0000 
	-5	-10	-7	146	107	190	1.11	0.71	1.0000 
	-6	-10	7	77	145	63	-0.57	-1.08	1.0000 
	-6	-10	-7	86	114	72	-0.54	0.59	1.0000 
	10	-6	-7	150	146	134	0.66	1.85	1.0000 
	10	-6	7	234	187	222	0.41	-1.43	1.0000 
	-7	-10	-7	40	84	43	0.58	-1.95	1.0000 
	10	-7	-7	52	116	50	-0.56	-1.65	1.0000 
	-7	-10	7	168	133	166	0.44	1.34	1.0000 
	-8	-10	-7	13	70	78	-0.1	-3.88	1.0000 
	-8	-10	7	45	109	132	-0.46	3.35	1.0000 
	-9	-10	-7	24	83	-69	-3.23	-0.3	1.0000 
	-9	-10	7	49	130	145	-3.38	0.25	1.0000 
	9	10	-7	18	131	86	-3.38	-0.25	1.0000 
	10	-10	-7	131	148	265	0.31	3.24	1.0000 
	-10	-10	7	69	132	175	-0.01	-3.3	1.0000 
	10	10	-7	25	88	-97	-0.01	3.3	1.0000 
	10	-11	-7	218	135	249	0.25	1.72	1.0000 
	9	-11	-7	2231	360	2109	0.85	0.27	1.0000 
	-11	-9	7	1455	290	1462	0.09	-0.48	1.0000 
	11	9	-7	1158	313	1164	0.09	0.48	1.0000 
	11	8	-7	2350	405	2385	-0.27	0.35	1.0000 
	-11	-8	7	1967	330	1999	-0.27	-0.35	1.0000 
	11	7	-7	2120	392	2171	0.34	0.39	1.0000 
	-11	-7	7	1649	287	1694	0.34	-0.39	1.0000 
	11	6	-7	1365	289	1249	1.16	-1.08	1.0000 
	-11	-6	7	1323	225	1209	1.16	1.08	1.0000 
	11	5	7	35	79	49	-0.74	0.02	1.0000 
	-11	-5	7	104	125	104	-0.01	-0.1	1.0000 
	11	5	-7	186	127	186	-0.01	0.1	1.0000 
	11	4	7	1116	241	980	-1.36	0.37	1.0000 
	11	4	-7	1064	263	947	-1.22	-0.17	1.0000 
	-11	-4	7	535	171	453	-1.22	0.17	1.0000 
	11	3	-7	1487	320	1421	0.82	-1.51	1.0000 
	3	-11	-7	1975	312	1941	-0.28	-0.14	1.0000 
	11	3	7	2093	334	1996	0.98	1.57	1.0000 
	3	-11	7	2092	276	2070	-0.2	0.26	1.0000 
	2	-11	-7	3975	431	4163	-0.57	-3.4	1.0000 
	11	2	7	3045	430	3179	0.9	-1.26	1.0000 
	2	-11	7	3289	338	3455	-0.47	3.86	1.0000 
	11	2	-7	4091	494	4255	0.94	1.31	1.0000 
	11	1	-7	806	264	810	-0.17	1.93	1.0000 
	11	1	7	974	246	973	-0.09	-1.32	1.0000 
	1	-11	7	683	200	682	-0.28	1.82	1.0000 
	1	-11	-7	433	185	432	-0.17	-1.19	1.0000 
	-1	-11	7	1257	261	1280	-0.32	-1.78	1.0000 
	11	-1	7	960	254	951	-0.28	1.32	1.0000 
	-1	-11	-7	1141	254	1156	-0.24	1.51	1.0000 
	11	-1	-7	1110	293	1118	-0.18	-1.71	1.0000 
	-2	-11	7	4086	424	4240	0.9	-1.45	1.0000 
	11	-2	7	3660	471	3826	-0.47	3.5	1.0000 
	11	-2	-7	3296	453	3486	-0.64	-3.67	1.0000 
	-2	-11	-7	3399	402	3549	0.93	1.03	1.0000 
	-3	-11	-7	1931	318	1842	0.89	-1.25	1.0000 
	11	-3	7	1305	290	1285	-0.2	0.07	1.0000 
	-3	-11	7	1472	281	1424	0.77	2.09	1.0000 
	11	-3	-7	1502	319	1473	-0.32	-0.43	1.0000 
	11	-4	7	480	192	418	1.48	-2.44	1.0000 
	-4	-11	-7	949	221	829	-1.32	-0.27	1.0000 
	-4	-11	7	1010	242	861	-1.62	0.14	1.0000 
	11	-4	-7	919	257	842	1.29	1.95	1.0000 
	11	-5	-7	253	147	277	0.44	0.71	1.0000 
	-5	-11	7	166	164	190	-0.48	-1.03	1.0000 
	11	-5	7	147	202	170	0.6	-0.38	1.0000 
	-5	-11	-7	93	112	94	-0.02	-0.33	1.0000 
	11	-6	7	1354	357	1349	-0.04	-0.04	1.0000 
	-6	-11	-7	1038	215	950	1.05	-1.45	1.0000 
	11	-6	-7	1083	278	1076	-0.05	0.26	1.0000 
	-6	-11	7	1562	296	1454	1.07	1.5	1.0000 
	11	-7	7	2084	442	2085	-0.1	1.24	1.0000 
	-7	-11	-7	2734	375	2795	0.36	0.36	1.0000 
	-7	-11	7	2949	407	3018	0.41	-0.19	1.0000 
	11	-7	-7	2500	406	2545	-0.41	-1.87	1.0000 
	-8	-11	-7	1901	305	1936	-0.3	0.3	1.0000 
	-8	-11	7	2332	375	2378	-0.38	-0.81	1.0000 
	11	-8	7	2131	456	2228	0.37	2.39	1.0000 
	-9	-11	-7	1165	220	1174	0.1	0.15	1.0000 
	11	-9	7	973	320	900	0.8	0.03	1.0000 
	-12	-8	7	4256	488	4102	-0.96	-1.09	1.0000 
	12	7	-7	4707	563	4440	1.35	-0.21	1.0000 
	-12	-7	7	4115	445	3866	1.35	0.21	1.0000 
	12	6	-7	858	258	1021	1.8	-0.22	1.0000 
	-12	-6	7	1234	270	1428	1.8	0.22	1.0000 
	-12	-5	7	871	165	851	-0.29	-0.88	1.0000 
	12	5	-7	311	162	298	-0.29	0.88	1.0000 
	5	-12	-7	497	164	468	0.51	-1.32	1.0000 
	12	5	7	332	122	320	-0.25	-0.56	1.0000 
	12	4	-7	4263	520	4147	0.73	-1.16	1.0000 
	12	4	7	3422	448	3360	0.61	2.08	1.0000 
	4	-12	-7	3636	414	3555	-0.34	1.53	1.0000 
	12	3	7	8779	660	8549	-0.6	3.24	1.0000 
	12	3	-7	8669	697	8518	-0.31	-3.59	1.0000 
	3	-12	-7	7495	559	7360	0.72	1.63	1.0000 
	12	2	-7	10480	774	10350	0.4	0.31	1.0000 
	2	-12	7	8481	584	8621	0.45	0.61	1.0000 
	2	-12	-7	9591	648	9712	0.38	-0.39	1.0000 
	12	2	7	10665	747	10404	0.79	-0.73	1.0000 
	12	1	7	3013	439	3211	0.91	-2.2	1.0000 
	1	-12	7	3667	401	3722	-0.43	1.72	1.0000 
	1	-12	-7	3024	410	3071	-0.43	-1.93	1.0000 
	12	1	-7	2664	441	2777	0.33	2.97	1.0000 
	-1	-12	-7	3133	415	3290	0.57	2.68	1.0000 
	-1	-12	7	3109	390	3254	0.54	-2.47	1.0000 
	12	-1	7	3678	473	3723	-0.38	1.88	1.0000 
	12	-1	-7	2564	434	2615	-0.48	-1.85	1.0000 
	12	-2	7	9900	781	10020	0.42	-0.18	1.0000 
	-2	-12	7	11018	678	10763	0.77	-0.6	1.0000 
	12	-2	-7	11433	830	11564	0.32	-0.93	1.0000 
	12	-3	-7	8247	679	8083	0.75	1.19	1.0000 
	12	-3	7	7837	673	7692	0.78	-1.91	1.0000 
	-3	-12	-7	7554	564	7392	-0.38	-3.66	1.0000 
	-3	-12	7	9190	612	9008	-0.42	3.08	1.0000 
	-4	-12	-7	4249	396	4137	0.77	-1.63	1.0000 
	12	-4	-7	3881	496	3788	-0.4	1.35	1.0000 
	-4	-12	7	4077	455	4021	0.44	1.33	1.0000 
	12	-4	7	3625	504	3523	-0.48	-1.05	1.0000 
	-5	-12	-7	269	128	261	-0.24	1.17	1.0000 
	12	-5	7	692	271	662	0.46	1.35	1.0000 
	12	-5	-7	297	167	280	0.38	-1.33	1.0000 
	-5	-12	7	469	198	441	-0.46	-0.37	1.0000 
	-6	-12	-7	1231	275	1407	1.66	-0.33	1.0000 
	-6	-12	7	1228	291	1374	1.37	0.08	1.0000 
	12	-6	-7	1334	333	1451	-1.22	-2.27	1.0000 
	12	-6	7	1448	388	1554	-1.08	2.26	1.0000 
	12	-7	-7	4199	528	3986	-1.05	0.6	1.0000 
	-7	-12	-7	3716	429	3482	1.35	-0.32	1.0000 
	12	-7	7	3574	536	3362	-1.08	-1.14	1.0000 
	-7	-12	7	4086	463	3823	1.37	-0.26	1.0000 
	-8	-12	-7	4489	476	4347	-0.88	1.13	1.0000 
	-13	-7	7	3407	337	3538	0.8	0.43	1.0000 
	7	-13	-7	2850	397	2959	-0.53	0.95	1.0000 
	-13	-6	7	1076	239	1147	-0.75	-0.35	1.0000 
	6	-13	-7	1379	282	1471	0.77	-0.37	1.0000 
	13	5	7	127	92	130	-0.1	-0.06	1.0000 
	13	5	-7	0	85	-112	-0.23	0.04	1.0000 
	5	-13	-7	4	90	9	0.62	-0.62	1.0000 
	4	-13	-7	1572	306	1722	-1.16	-0.6	1.0000 
	13	4	-7	1686	379	1918	1.83	-0.11	1.0000 
	13	4	7	1979	390	2219	1.73	0.23	1.0000 
	13	3	7	5248	525	5297	-0.22	0.04	1.0000 
	13	3	-7	4324	554	4397	-0.31	-0.5	1.0000 
	3	-13	-7	5026	461	5141	0.7	1.39	1.0000 
	2	-13	7	6397	479	6334	0.03	-2.85	1.0000 
	2	-13	-7	6700	521	6557	0.36	2.69	1.0000 
	13	2	7	5796	563	5978	0.57	1.71	1.0000 
	13	2	-7	6262	616	6390	0.35	-1.45	1.0000 
	13	1	-7	1263	328	1203	0.71	-0.91	1.0000 
	13	1	7	1659	327	1578	0.94	1.61	1.0000 
	1	-13	-7	2190	352	2128	-0.35	0.84	1.0000 
	1	-13	7	2244	328	2139	-0.61	-1.25	1.0000 
	-1	-13	7	1984	324	1899	0.86	1.33	1.0000 
	13	-1	-7	2281	405	2185	-0.53	1.38	1.0000 
	-1	-13	-7	2245	370	2178	0.66	-1.16	1.0000 
	13	-1	7	1627	352	1556	-0.51	-0.72	1.0000 
	13	-2	-7	6730	624	6629	0.19	2.64	1.0000 
	-2	-13	-7	6891	550	6998	0.23	-1.52	1.0000 
	13	-2	7	6230	598	6143	0.13	-2.89	1.0000 
	-2	-13	7	6050	507	6215	0.47	1.74	1.0000 
	-3	-13	7	5075	460	5150	-0.33	0.17	1.0000 
	13	-3	7	4189	562	4292	0.74	-1.93	1.0000 
	13	-3	-7	4738	580	4843	0.63	1.03	1.0000 
	-3	-13	-7	5392	481	5455	-0.25	-0.33	1.0000 
	13	-4	-7	1635	381	1778	-1.03	-0.93	1.0000 
	-4	-13	7	1863	361	2099	1.76	0.22	1.0000 
	-4	-13	-7	2040	373	2301	1.88	-0.02	1.0000 
	13	-4	7	2270	456	2455	-1.19	0.61	1.0000 
	13	-5	7	1	119	-92	0.45	0.65	1.0000 
	13	-5	-7	48	126	67	0.62	-1.18	1.0000 
	-5	-13	-7	124	107	133	-0.27	0.34	1.0000 
	-5	-13	7	332	168	343	-0.13	0.42	1.0000 
	13	-6	-7	1733	407	1838	0.76	-0.55	1.0000 
	13	-7	-7	3319	524	3439	-0.53	1.05	1.0000 
	14	4	7	702	206	568	1.74	-0.37	1.0000 
	14	3	7	1931	396	2053	0.67	-1.68	1.0000 
	3	-14	-7	2208	356	2318	-0.86	-0.72	1.0000 
	2	-14	-7	2864	418	3002	0.64	1.52	1.0000 
	14	2	7	2241	417	2418	-1.33	0.99	1.0000 
	14	1	-7	1037	261	995	-0.33	-2.46	1.0000 
	14	1	7	930	226	868	-0.58	2.54	1.0000 
	1	-14	-7	520	171	505	0.89	2.58	1.0000 
	1	-14	7	661	180	673	0.68	-2.99	1.0000 
	14	-1	7	617	209	618	0.66	-2.61	1.0000 
	-1	-14	7	937	202	888	-0.43	2.52	1.0000 
	14	-1	-7	615	249	614	0.83	2.96	1.0000 
	14	-2	-7	2874	499	3007	0.55	1.83	1.0000 
	-2	-14	7	2138	372	2310	-1.3	0.71	1.0000 
	0	0	-8	4535	189	2427	12.32	-0.59	1.0000 
	1	0	-8	134	69	175	2.34	-3.77	1.0000 
	-1	0	-8	110	81	135	2.22	-4	1.0000 
	1	0	-8	95	72	122	2.34	-3.77	1.0000 
	0	-1	-8	152	89	197	2.09	-2.82	1.0000 
	0	1	-8	130	72	155	2.32	-4.92	1.0000 
	-1	-1	-8	1337	143	973	4.82	-5.28	1.0000 
	1	1	-8	1345	115	998	4.63	-5.32	1.0000 
	1	-1	-8	1056	131	741	4.56	-5.03	1.0000 
	-1	1	-8	1253	117	916	4.69	-5.52	1.0000 
	1	-1	-8	1295	105	952	4.56	-5.03	1.0000 
	2	1	-8	942	131	1210	2.7	0.53	1.0000 
	1	-2	-8	907	166	1171	2.64	1.24	1.0000 
	-1	2	-8	790	121	1046	2.82	0.24	1.0000 
	-2	-1	-8	941	158	1206	2.75	-0.85	1.0000 
	1	-2	-8	963	102	1235	2.64	1.24	1.0000 
	1	-2	8	912	109	1186	2.82	-0.24	1.0000 
	2	1	-8	799	146	1047	2.7	0.53	1.0000 
	-2	0	-8	3235	225	2744	-3.16	-1.34	1.0000 
	2	0	-8	3077	202	2579	-3.34	-1.67	1.0000 
	0	-2	8	3561	188	3102	-3.02	2.51	1.0000 
	0	-2	-8	3712	241	3115	-3.46	-0.4	1.0000 
	0	2	-8	3233	181	2795	-3.02	-2.51	1.0000 
	2	0	-8	3331	205	2813	-3.34	-1.67	1.0000 
	-2	1	-8	881	148	1145	2.68	1.2	1.0000 
	-1	-2	-8	769	156	1002	2.61	0.24	1.0000 
	2	-1	-8	862	149	1125	2.78	0.2	1.0000 
	-1	-2	8	1150	150	1450	2.81	0.52	1.0000 
	2	-1	-8	970	129	1248	2.78	0.2	1.0000 
	1	2	-8	924	119	1194	2.81	-0.52	1.0000 
	2	-2	-8	971	166	1278	3.06	0.86	1.0000 
	-2	-2	8	920	149	1106	1.96	-0.43	1.0000 
	2	-2	-8	892	118	1187	3.06	0.86	1.0000 
	-2	-2	-8	1337	180	1515	1.55	-0.42	1.0000 
	2	2	-8	960	118	1150	1.96	0.43	1.0000 
	2	2	-8	827	157	1004	1.96	0.43	1.0000 
	2	-2	8	863	91	1168	3.2	-1.25	1.0000 
	3	2	-8	1784	216	2228	-3.31	0.96	1.0000 
	2	-3	-8	1879	153	2231	-2.56	-1.01	1.0000 
	-3	-2	-8	1519	148	1931	-3.31	-0.1	1.0000 
	3	2	8	1616	161	2040	-3.31	0.1	1.0000 
	2	-3	8	2056	139	2408	-2.47	0.71	1.0000 
	-3	-2	8	1605	203	2028	-3.31	-0.96	1.0000 
	-3	-2	-8	1558	208	1975	-3.31	-0.1	1.0000 
	3	2	-8	1547	165	1962	-3.31	0.96	1.0000 
	2	-3	-8	2092	227	2463	-2.56	-1.01	1.0000 
	1	-3	-8	20	77	33	-3.03	3.59	1.0000 
	1	-3	-8	67	37	153	-3.03	3.59	1.0000 
	1	-3	8	83	62	160	-2.94	-3.11	1.0000 
	-3	-1	-8	42	87	101	-2.7	3.59	1.0000 
	3	1	-8	217	106	369	-2.76	3.52	1.0000 
	3	0	-8	11731	537	11141	1.84	-0.05	1.0000 
	0	3	-8	12826	469	12186	1.95	-1.18	1.0000 
	-3	0	-8	11519	540	10965	1.74	0.03	1.0000 
	0	-3	8	12881	479	12239	1.95	1.18	1.0000 
	3	0	-8	11922	545	11327	1.84	-0.05	1.0000 
	0	-3	-8	11738	561	11175	1.74	1.21	1.0000 
	1	3	-8	69	49	133	-2.24	3.25	1.0000 
	3	-1	-8	49	87	108	-2.95	3.3	1.0000 
	-1	-3	-8	105	107	234	-3.06	3.97	1.0000 
	-1	-3	8	149	96	251	-2.24	-3.25	1.0000 
	3	-1	-8	64	73	135	-2.95	3.3	1.0000 
	-2	-3	8	2009	202	2463	-3.21	-0.6	1.0000 
	3	-2	-8	1840	220	2179	-2.48	-1.28	1.0000 
	-2	-3	-8	1662	212	2100	-3.38	0.31	1.0000 
	3	-2	-8	1861	182	2202	-2.48	-1.28	1.0000 
	2	3	-8	1810	228	2242	-3.21	0.6	1.0000 
	2	3	-8	1626	141	2036	-3.21	0.6	1.0000 
	2	3	8	1665	129	2103	-3.38	-0.31	1.0000 
	-3	-3	-8	81	80	217	3.63	-2.38	1.0000 
	3	-3	-8	97	107	194	2.57	-1.72	1.0000 
	3	3	-8	60	94	158	3.09	-1.93	1.0000 
	3	3	8	128	70	294	3.63	2.38	1.0000 
	-3	-3	-8	145	119	320	3.63	-2.38	1.0000 
	-3	-3	8	132	120	269	3.09	1.93	1.0000 
	3	3	-8	116	64	245	3.09	-1.93	1.0000 
	3	-3	-8	75	66	162	2.57	-1.72	1.0000 
	3	-3	8	110	51	202	2.17	2.57	1.0000 
	3	-4	8	597	96	881	3.54	1.21	1.0000 
	4	3	-8	609	186	959	4.14	0.8	1.0000 
	-4	-3	-8	617	124	953	3.76	2.17	1.0000 
	4	3	8	678	135	1029	3.76	-2.17	1.0000 
	-4	-3	8	618	171	971	4.14	-0.8	1.0000 
	3	-4	-8	654	177	942	3.37	0.57	1.0000 
	-4	-3	-8	690	180	1044	3.76	2.17	1.0000 
	3	-4	-8	638	121	922	3.37	0.57	1.0000 
	2	-4	-8	2911	184	3090	1.09	-0.11	1.0000 
	2	-4	-8	2585	258	2753	1.09	-0.11	1.0000 
	-4	-2	8	2470	233	2669	1.32	0.44	1.0000 
	-4	-2	-8	2512	253	2749	1.54	0.05	1.0000 
	2	-4	8	2687	177	2881	1.24	2.17	1.0000 
	4	2	8	2585	218	2826	1.54	-0.05	1.0000 
	4	2	-8	2693	266	2900	1.32	-0.44	1.0000 
	-4	-2	-8	2662	179	2906	1.54	0.05	1.0000 
	1	-4	-8	7760	347	8609	-3.14	0.07	1.0000 
	1	-4	8	8054	383	8788	-2.68	-0.16	1.0000 
	-4	-1	-8	8163	480	8910	-2.73	0.52	1.0000 
	4	1	-8	7931	488	8679	-2.76	0.32	1.0000 
	-4	-1	-8	8009	338	8749	-2.73	0.52	1.0000 
	1	-4	-8	7540	479	8377	-3.14	0.07	1.0000 
	-4	0	-8	33904	1093	33104	-1.47	0.16	1.0000 
	0	-4	8	35776	1205	35116	-1.22	-1.08	1.0000 
	4	0	-8	34742	1389	33998	-1.37	0.82	1.0000 
	0	-4	-8	36895	1375	35952	-1.65	-0.1	1.0000 
	-1	-4	8	8495	427	9170	-2.42	-0.39	1.0000 
	-1	-4	-8	7471	478	8269	-3.04	0.59	1.0000 
	4	-1	-8	8218	475	9044	-3.01	0.63	1.0000 
	1	4	-8	8147	344	8809	-2.42	0.39	1.0000 
	4	-2	-8	2811	241	2999	1.19	-1.24	1.0000 
	-2	-4	8	2299	225	2519	1.52	1.21	1.0000 
	2	4	8	2737	149	2938	1.22	-0.81	1.0000 
	-2	-4	-8	2728	265	2929	1.22	0.81	1.0000 
	2	4	-8	3138	156	3394	1.52	-1.21	1.0000 
	3	4	-8	820	200	1192	3.9	0.54	1.0000 
	4	-3	-8	496	132	735	3.26	-0.4	1.0000 
	4	-3	8	675	66	996	3.75	0.37	1.0000 
	-3	-4	-8	578	142	912	3.83	2.26	1.0000 
	3	4	8	551	94	877	3.83	-2.26	1.0000 
	-3	-4	-8	507	160	821	3.83	2.26	1.0000 
	-3	-4	8	775	177	1138	3.9	-0.54	1.0000 
	3	4	-8	640	89	973	3.9	0.54	1.0000 
	4	4	-8	6056	443	6479	-1.81	0.32	1.0000 
	-4	-4	8	5094	362	5483	-1.81	-0.32	1.0000 
	4	-4	-8	5179	399	5452	-1.19	-0.88	1.0000 
	-4	-4	-8	5294	325	5737	-2.05	1.1	1.0000 
	4	-4	8	5715	252	5945	-0.93	0.99	1.0000 
	4	4	8	5398	323	5845	-2.05	-1.1	1.0000 
	4	-4	-8	5403	348	5682	-1.19	-0.88	1.0000 
	-4	-4	-8	5050	384	5483	-2.05	1.1	1.0000 
	4	-5	-8	3807	330	3719	-0.46	-0.22	1.0000 
	-5	-4	-8	2950	280	2755	-1.12	-1.02	1.0000 
	4	-5	-8	2829	231	2753	-0.46	-0.22	1.0000 
	-5	-4	8	2838	280	2647	-1.06	1.81	1.0000 
	4	-5	8	3350	189	3255	-0.52	0.36	1.0000 
	-5	-4	-8	3193	220	2990	-1.12	-1.02	1.0000 
	5	4	-8	3028	303	2831	-1.06	-1.81	1.0000 
	5	4	8	3373	242	3165	-1.12	1.02	1.0000 
	3	-5	-8	312	150	501	3.89	-4.52	1.0000 
	5	3	-8	122	103	79	2.83	-1.04	1.0000 
	3	-5	-8	85	67	153	3.89	-4.52	1.0000 
	3	-5	8	53	58	73	4.24	4.3	1.0000 
	-5	-3	8	171	116	123	2.83	1.04	1.0000 
	5	3	8	157	75	105	1.75	-2.2	1.0000 
	-5	-3	-8	135	64	86	1.75	2.2	1.0000 
	2	-5	8	2277	160	1863	3.15	1.29	1.0000 
	5	2	-8	2252	243	1886	2.82	-1.55	1.0000 
	-5	-2	8	2223	221	1859	2.82	1.55	1.0000 
	5	2	8	2210	193	1868	2.52	-0.24	1.0000 
	2	-5	-8	2064	136	1678	2.98	0.02	1.0000 
	-5	-2	-8	2057	137	1728	2.52	0.24	1.0000 
	2	-5	-8	2060	224	1675	2.98	0.02	1.0000 
	5	1	8	4033	274	3540	-2.71	-0.19	1.0000 
	1	-5	-8	4175	303	3707	-2.76	1.97	1.0000 
	1	-5	-8	3859	167	3409	-2.76	1.97	1.0000 
	-5	-1	-8	3495	164	3037	-2.71	0.19	1.0000 
	5	1	-8	3390	284	2986	-2.5	0.84	1.0000 
	0	-5	8	11525	538	13672	-6.58	-4.05	1.0000 
	0	-5	-8	8888	597	10873	-6.82	2.3	1.0000 
	5	0	-8	9980	626	12048	-6.76	3.1	1.0000 
	-5	0	-8	8850	396	10783	-6.7	2.98	1.0000 
	5	-1	-8	3672	280	3228	-2.77	1.83	1.0000 
	-1	-5	-8	3777	287	3319	-2.63	0.48	1.0000 
	-2	-5	-8	2102	204	1777	2.45	0.21	1.0000 
	-2	-5	-8	2675	234	2307	2.45	0.21	1.0000 
	5	-2	-8	1971	204	1602	2.92	-0.07	1.0000 
	-2	-5	8	2155	204	1792	2.86	1.55	1.0000 
	-3	-5	-8	449	126	346	1.73	1.63	1.0000 
	-3	-5	8	180	102	111	2.65	0.41	1.0000 
	-3	-5	-8	476	109	370	1.73	1.63	1.0000 
	5	-3	-8	98	93	159	3.55	-4.12	1.0000 
	3	5	-8	224	33	147	2.65	-0.41	1.0000 
	3	5	8	420	62	321	1.73	-1.63	1.0000 
	-4	-5	8	3188	278	2980	-1.1	1.7	1.0000 
	5	-4	-8	2964	254	2869	-0.57	-0.14	1.0000 
	4	5	8	3614	218	3353	-1.36	1.24	1.0000 
	-4	-5	-8	3500	290	3243	-1.36	-1.24	1.0000 
	4	5	-8	2741	308	2548	-1.1	-1.7	1.0000 
	-4	-5	-8	3318	247	3068	-1.36	-1.24	1.0000 
	5	5	-8	5515	485	6291	-3.03	-2.83	1.0000 
	-5	-5	-8	5747	447	6439	-2.53	-3.34	1.0000 
	5	5	8	5930	382	6633	-2.53	3.34	1.0000 
	-5	-5	-8	5810	380	6506	-2.53	-3.34	1.0000 
	5	-5	-8	5697	416	6797	-4.85	5.94	1.0000 
	-5	-5	8	5781	426	6575	-3.03	2.83	1.0000 
	-6	-5	-8	4709	300	4076	-3.11	-1.17	1.0000 
	5	-6	-8	4910	327	4285	-3.14	0.48	1.0000 
	6	5	-8	4995	401	4310	-3.24	-1.73	1.0000 
	5	-6	-8	5411	408	4754	-3.14	0.48	1.0000 
	6	5	8	4440	307	3826	-3.11	1.17	1.0000 
	-6	-5	8	6137	388	5376	-3.24	1.73	1.0000 
	4	-6	8	4156	244	3975	0.84	-2.07	1.0000 
	6	4	-8	5059	408	4876	0.92	-0.56	1.0000 
	6	4	8	3992	303	3849	0.76	-0.04	1.0000 
	-6	-4	8	4319	336	4150	0.92	0.56	1.0000 
	4	-6	-8	3966	350	3840	0.57	2	1.0000 
	-6	-4	-8	3934	269	3792	0.76	0.04	1.0000 
	4	-6	-8	4393	293	4261	0.57	2	1.0000 
	6	3	-8	2357	307	2489	0.91	-1.93	1.0000 
	6	3	8	2191	237	2259	0.51	1.13	1.0000 
	-6	-3	8	3049	284	3200	0.91	1.93	1.0000 
	3	-6	8	2498	205	2610	0.75	0.32	1.0000 
	3	-6	-8	2416	285	2514	0.68	-0.83	1.0000 
	3	-6	-8	2586	211	2687	0.68	-0.83	1.0000 
	-6	-3	-8	2694	200	2770	0.51	-1.13	1.0000 
	-6	-2	8	302	127	282	-0.37	0.17	1.0000 
	2	-6	-8	252	118	238	-0.58	0.81	1.0000 
	2	-6	8	66	78	56	-0.61	-0.68	1.0000 
	-6	-2	-8	210	61	196	-0.49	0.54	1.0000 
	6	2	8	118	80	108	-0.49	-0.54	1.0000 
	2	-6	-8	75	43	67	-0.58	0.81	1.0000 
	6	2	-8	171	114	156	-0.37	-0.17	1.0000 
	6	1	-8	1682	246	1720	-0.41	1.02	1.0000 
	1	-6	8	1627	186	1727	-0.92	-1.1	1.0000 
	1	-6	-8	1651	125	1751	-0.94	1.41	1.0000 
	1	-6	-8	1810	239	1915	-0.94	1.41	1.0000 
	6	1	8	1366	205	1408	-0.48	-1.05	1.0000 
	-6	-1	-8	1779	118	1827	-0.48	1.05	1.0000 
	0	-6	-8	4242	314	3964	-1.54	0.79	1.0000 
	6	0	-8	3717	316	3469	-1.44	0.45	1.0000 
	6	0	8	3645	307	3399	-1.46	-0.6	1.0000 
	0	-6	8	3687	252	3433	-1.5	-0.62	1.0000 
	-1	-6	-8	1448	213	1488	-0.46	1.11	1.0000 
	-1	-6	8	1826	211	1890	-0.58	-0.81	1.0000 
	6	-1	-8	1351	223	1453	-1.01	1.04	1.0000 
	-2	-6	8	0	98	-21	-0.43	0.05	1.0000 
	-2	-6	-8	165	107	152	-0.44	0.33	1.0000 
	-2	-6	-8	149	102	137	-0.44	0.33	1.0000 
	6	-2	-8	75	86	67	-0.61	0.99	1.0000 
	6	-3	-8	2653	277	2767	0.75	-0.46	1.0000 
	-3	-6	-8	2455	243	2509	0.38	-1.33	1.0000 
	-3	-6	-8	2747	284	2804	0.38	-1.33	1.0000 
	-3	-6	8	2459	273	2598	0.94	1.57	1.0000 
	6	-4	-8	3792	312	3638	0.73	2.17	1.0000 
	4	6	-8	4114	370	3932	0.97	-0.19	1.0000 
	-4	-6	-8	3857	333	3744	0.64	-0.31	1.0000 
	-4	-6	-8	4068	303	3952	0.64	-0.31	1.0000 
	-4	-6	8	4124	327	3942	0.97	0.19	1.0000 
	-5	-6	8	4771	350	4136	-3.08	1.4	1.0000 
	6	-5	-8	5089	348	4475	-3.07	0.89	1.0000 
	-5	-6	-8	4867	318	4196	-3.23	-1.48	1.0000 
	-5	-6	-8	4743	355	4081	-3.23	-1.48	1.0000 
	5	6	-8	4746	405	4112	-3.08	-1.4	1.0000 
	-6	-6	8	1316	279	1861	-4.17	2.47	1.0000 
	6	6	-8	917	271	1378	-4.17	-2.47	1.0000 
	-6	-6	-8	1372	237	1919	-4.07	-2.6	1.0000 
	6	-6	-8	1454	236	1853	-2.94	-2.05	1.0000 
	7	6	-8	81	108	58	0.94	-0.06	1.0000 
	6	-7	-8	238	100	149	2.14	-0.24	1.0000 
	-7	-6	-8	85	92	58	1.03	-0.38	1.0000 
	6	-7	-8	293	148	193	2.14	-0.24	1.0000 
	-7	-6	8	302	147	255	0.94	0.06	1.0000 
	7	5	8	163	91	194	-0.96	-0.18	1.0000 
	5	-7	-8	28	125	74	1.35	-3.08	1.0000 
	-7	-5	8	79	133	107	-0.7	0.66	1.0000 
	-7	-5	-8	35	85	50	-0.96	0.18	1.0000 
	5	-7	-8	25	45	-7	1.35	-3.08	1.0000 
	7	5	-8	2	107	-90	-0.7	-0.66	1.0000 
	7	4	8	38	76	57	-1.04	0.54	1.0000 
	-7	-4	-8	66	74	90	-1.04	-0.54	1.0000 
	4	-7	8	5	72	14	-0.95	-0.59	1.0000 
	-7	-4	8	112	121	143	-1.03	0.77	1.0000 
	4	-7	-8	55	122	78	-0.91	0.29	1.0000 
	7	4	-8	70	127	94	-1.03	-0.77	1.0000 
	-7	-3	8	316	161	367	0.26	2.09	1.0000 
	7	3	-8	151	127	184	0.26	-2.09	1.0000 
	7	3	8	67	89	108	0.4	3.43	1.0000 
	3	-7	8	169	103	164	-0.8	-2.61	1.0000 
	3	-7	-8	176	119	152	-0.93	1.87	1.0000 
	-7	-3	-8	315	99	423	0.4	-3.43	1.0000 
	2	-7	-8	744	194	797	-0.64	0.25	1.0000 
	2	-7	8	781	164	836	-0.66	-0.87	1.0000 
	7	2	-8	1061	228	1045	0.15	0.46	1.0000 
	-7	-2	8	1288	216	1271	0.15	-0.46	1.0000 
	7	2	8	784	179	785	0.01	0.52	1.0000 
	-7	-2	-8	1120	123	1121	0.01	-0.52	1.0000 
	7	1	-8	555	187	655	1.2	1.82	1.0000 
	1	-7	8	613	152	679	0.83	-0.51	1.0000 
	7	1	8	622	175	717	1.04	-1.98	1.0000 
	1	-7	-8	671	172	748	0.93	0.54	1.0000 
	7	0	8	964	181	756	2.31	-1.09	1.0000 
	7	0	-8	854	180	656	2.35	1.19	1.0000 
	0	-7	8	815	155	626	2.31	-0.7	1.0000 
	0	-7	-8	1078	183	871	2.15	1.53	1.0000 
	-1	-7	-8	974	200	1092	1	2.11	1.0000 
	7	-1	8	594	185	666	0.93	-0.41	1.0000 
	7	-1	-8	688	198	760	0.86	0.5	1.0000 
	-1	-7	-8	598	182	689	1	2.11	1.0000 
	-1	-7	8	590	159	674	0.98	-1.62	1.0000 
	-2	-7	-8	1002	203	1003	0	-0.16	1.0000 
	7	-2	-8	834	207	891	-0.65	0.13	1.0000 
	-2	-7	-8	1233	202	1234	0	-0.16	1.0000 
	-2	-7	8	1194	213	1194	0	-0.22	1.0000 
	7	-3	-8	225	132	197	-0.87	1.62	1.0000 
	-3	-7	-8	265	138	348	0.19	-3.3	1.0000 
	-3	-7	8	349	159	413	0.31	2.32	1.0000 
	-3	-7	-8	359	162	459	0.19	-3.3	1.0000 
	-4	-7	-8	215	134	254	-0.97	-0.98	1.0000 
	7	-4	-8	2	62	-92	-1	0.21	1.0000 
	-4	-7	8	3	112	-65	-1.12	0.41	1.0000 
	-4	-7	-8	144	108	176	-0.97	-0.98	1.0000 
	-5	-7	8	29	128	48	-0.92	0.52	1.0000 
	-5	-7	-8	85	105	104	-0.73	-0.06	1.0000 
	7	-5	-8	138	121	228	1.27	-2.79	1.0000 
	-5	-7	-8	1	111	-13	-0.73	-0.06	1.0000 
	5	7	-8	67	113	95	-0.92	-0.52	1.0000 
	7	-6	-8	145	109	79	2.13	-0.07	1.0000 
	-6	-7	8	137	130	106	0.92	0.26	1.0000 
	6	7	-8	130	138	100	0.92	-0.26	1.0000 
	-6	-7	-8	2	92	-4	1.01	-0.25	1.0000 
	-7	-7	8	591	167	441	-2.23	-1.38	1.0000 
	-7	-7	-8	807	165	633	-2.16	0.78	1.0000 
	7	-7	-8	802	173	600	-2.57	1.11	1.0000 
	7	7	-8	736	198	568	-2.23	1.38	1.0000 
	-8	-7	8	548	220	803	-3.28	-0.65	1.0000 
	7	-8	-8	133	169	286	-3.38	-1.98	1.0000 
	-8	-7	-8	395	145	622	-3.38	-0.08	1.0000 
	8	7	-8	122	165	254	-3.28	0.65	1.0000 
	6	-8	-8	519	231	863	4.42	-0.48	1.0000 
	-8	-6	-8	405	153	723	4.51	0.23	1.0000 
	8	6	-8	319	213	630	4.74	1.37	1.0000 
	-8	-6	8	224	181	494	4.74	-1.37	1.0000 
	8	5	-8	671	184	449	3.31	-1.49	1.0000 
	8	5	8	615	134	411	3.16	1.37	1.0000 
	5	-8	-8	712	178	486	3.2	-1	1.0000 
	-8	-5	-8	822	128	584	3.16	-1.37	1.0000 
	-8	-5	8	1051	211	769	3.31	1.49	1.0000 
	8	4	-8	470	167	312	-2.65	-1.1	1.0000 
	4	-8	-8	353	144	209	-2.85	-0.86	1.0000 
	-8	-4	8	434	150	283	-2.65	1.1	1.0000 
	8	4	8	792	155	576	-2.74	0.72	1.0000 
	8	3	8	121	128	195	-1.98	0.1	1.0000 
	3	-8	8	288	132	427	-2.39	-1.62	1.0000 
	8	3	-8	307	181	425	-2.07	0.75	1.0000 
	-8	-3	8	403	160	538	-2.07	-0.75	1.0000 
	3	-8	-8	289	152	403	-2.06	0.52	1.0000 
	8	2	8	115	128	190	2.05	-0.18	1.0000 
	2	-8	8	161	130	248	1.84	-1.86	1.0000 
	2	-8	-8	132	125	214	2.09	0.45	1.0000 
	8	2	-8	36	120	79	1.92	0.86	1.0000 
	1	-8	-8	1405	233	1491	0.7	0.75	1.0000 
	1	-8	8	1330	209	1394	0.54	-0.58	1.0000 
	8	1	-8	1001	239	1045	0.34	1.34	1.0000 
	8	1	8	1282	235	1322	0.33	-0.61	1.0000 
	0	-8	-8	1169	229	1502	-3.08	0.97	1.0000 
	8	0	8	1156	250	1484	-3.03	-0.19	1.0000 
	8	0	-8	1410	279	1761	-2.96	0.25	1.0000 
	0	-8	8	957	211	1247	-2.89	0.67	1.0000 
	8	-1	8	1342	255	1405	0.48	-1.09	1.0000 
	-1	-8	8	1400	224	1440	0.29	-0.78	1.0000 
	-1	-8	-8	1171	231	1209	0.27	1.13	1.0000 
	8	-1	-8	1304	261	1381	0.69	0.14	1.0000 
	-1	-8	-8	1498	232	1541	0.27	1.13	1.0000 
	-2	-8	8	114	135	188	1.99	-0.96	1.0000 
	-2	-8	-8	96	112	163	1.98	0.12	1.0000 
	-2	-8	-8	18	118	51	1.98	0.12	1.0000 
	8	-2	8	65	143	127	2.08	-1.41	1.0000 
	8	-2	-8	6	124	25	1.88	0.93	1.0000 
	-3	-8	-8	568	170	723	-2.04	-0.15	1.0000 
	8	-3	-8	133	153	233	-2.49	0.99	1.0000 
	-3	-8	8	548	190	711	-2.18	-0.5	1.0000 
	-3	-8	-8	464	174	605	-2.04	-0.15	1.0000 
	-4	-8	8	465	173	301	-2.79	0.88	1.0000 
	8	-4	-8	329	141	181	-3.09	-0.85	1.0000 
	-4	-8	-8	553	157	379	-2.68	-1.1	1.0000 
	-4	-8	-8	860	195	639	-2.68	-1.1	1.0000 
	-5	-8	8	779	193	556	3.13	1.94	1.0000 
	8	-5	-8	796	184	566	3.1	-1.33	1.0000 
	-5	-8	-8	719	162	490	3.24	-1.13	1.0000 
	-5	-8	-8	896	186	638	3.24	-1.13	1.0000 
	6	8	-8	623	249	1006	4.5	0.36	1.0000 
	-6	-8	-8	546	208	920	4.57	1.14	1.0000 
	-6	-8	8	623	233	1007	4.5	-0.36	1.0000 
	8	-6	-8	364	205	656	4.4	-0.8	1.0000 
	-7	-8	8	360	202	568	-3.24	-0.71	1.0000 
	-7	-8	-8	254	140	449	-3.5	0.1	1.0000 
	7	8	-8	383	209	597	-3.24	0.71	1.0000 
	8	-7	-8	239	178	430	-3.29	-1.93	1.0000 
	8	8	-8	173	176	344	-3.56	-0.63	1.0000 
	-8	-8	8	225	166	415	-3.56	0.63	1.0000 
	-8	-8	-8	193	139	380	-3.6	-1.63	1.0000 
	9	8	-8	2	114	33	3.04	-0.32	1.0000 
	-9	-8	-8	3	75	22	3.09	-1.57	1.0000 
	8	-9	-8	102	151	236	3.14	1.65	1.0000 
	-9	-8	8	158	151	292	3.04	0.32	1.0000 
	7	-9	-8	1880	340	2013	1.02	-1.63	1.0000 
	-9	-7	8	1295	273	1421	1.13	-0.37	1.0000 
	9	7	-8	1372	318	1502	1.13	0.37	1.0000 
	9	6	-8	3628	450	3486	0.75	0.85	1.0000 
	-9	-6	8	4059	410	3909	0.75	-0.85	1.0000 
	6	-9	-8	4008	427	3874	0.77	-0.79	1.0000 
	-9	-5	8	5177	439	5305	0.64	0.88	1.0000 
	5	-9	-8	4341	411	4419	0.38	0.27	1.0000 
	9	5	8	5119	427	5239	0.6	0.73	1.0000 
	9	5	-8	4506	471	4626	0.64	-0.88	1.0000 
	9	4	8	1257	255	1378	-1.08	0.35	1.0000 
	-9	-4	8	1644	280	1798	-1.25	-0.07	1.0000 
	4	-9	-8	1248	260	1434	-1.68	-0.21	1.0000 
	9	4	-8	1859	345	2023	-1.25	0.07	1.0000 
	3	-9	-8	572	143	422	-2.38	1.02	1.0000 
	9	3	8	327	127	214	-2.37	-0.64	1.0000 
	3	-9	8	421	115	284	-2.55	-0.85	1.0000 
	-9	-3	8	471	129	327	-2.59	-1.34	1.0000 
	9	3	-8	357	153	233	-2.59	1.34	1.0000 
	9	2	-8	1	107	-77	-0.49	-0.34	1.0000 
	2	-9	-8	113	108	145	-0.36	1.16	1.0000 
	9	2	8	22	82	23	-0.14	0.09	1.0000 
	2	-9	8	149	122	189	-0.69	-0.89	1.0000 
	1	-9	-8	1982	256	1893	0.61	0.68	1.0000 
	9	1	8	1673	270	1551	1.01	-0.08	1.0000 
	1	-9	8	1850	244	1767	0.63	-0.31	1.0000 
	9	1	-8	1766	304	1666	0.79	0.21	1.0000 
	0	-9	-8	1598	244	1495	-0.93	0.29	1.0000 
	9	0	8	1691	283	1593	-0.81	0.05	1.0000 
	9	0	-8	2259	328	2144	-0.85	0.13	1.0000 
	0	-9	-8	1470	255	1371	-0.93	0.29	1.0000 
	0	-9	8	1677	252	1599	-0.62	0.25	1.0000 
	-1	-9	-8	2611	292	2476	0.86	0.39	1.0000 
	-1	-9	-8	1938	282	1822	0.86	0.39	1.0000 
	-1	-9	8	2259	276	2142	0.88	0.37	1.0000 
	9	-1	8	2478	334	2392	0.53	-0.59	1.0000 
	9	-1	-8	2322	334	2217	0.71	0.3	1.0000 
	-2	-9	-8	53	119	60	-0.4	-0.15	1.0000 
	9	-2	-8	10	106	22	-0.54	1.1	1.0000 
	9	-2	8	43	124	65	-0.58	-0.97	1.0000 
	-2	-9	-8	112	108	123	-0.4	-0.15	1.0000 
	-2	-9	8	74	120	82	-0.43	0.63	1.0000 
	9	-3	-8	481	170	333	-2.56	0.88	1.0000 
	-3	-9	8	336	147	213	-2.55	-0.53	1.0000 
	9	-3	8	258	154	158	-2.44	-1.08	1.0000 
	-3	-9	-8	490	159	341	-2.57	0.97	1.0000 
	-3	-9	-8	190	127	101	-2.57	0.97	1.0000 
	-4	-9	-8	1252	250	1391	-1.31	0.35	1.0000 
	9	-4	-8	1706	316	1913	-1.62	-0.1	1.0000 
	-4	-9	8	1128	259	1257	-1.14	1.04	1.0000 
	-5	-9	-8	4514	395	4641	0.67	-0.72	1.0000 
	-5	-9	8	4461	410	4570	0.59	0.8	1.0000 
	9	-5	-8	4917	455	4971	0.23	0.36	1.0000 
	-6	-9	8	3509	402	3434	0.35	-2	1.0000 
	-6	-9	-8	3716	347	3590	0.66	0.61	1.0000 
	9	-6	-8	4067	405	3974	0.56	-0.89	1.0000 
	9	-7	-8	1154	283	1259	1.03	-1.78	1.0000 
	-7	-9	8	2010	337	2131	0.84	-0.79	1.0000 
	-7	-9	-8	1691	282	1794	0.83	-0.06	1.0000 
	8	9	-8	6	84	47	3.14	-0.58	1.0000 
	-8	-9	8	1	92	20	3.14	0.58	1.0000 
	-8	-9	-8	66	110	163	3.06	-1.22	1.0000 
	-9	-9	8	471	156	458	0.58	1.54	1.0000 
	-9	-9	-8	362	106	365	0.62	-2.42	1.0000 
	9	9	-8	341	154	329	0.58	-1.54	1.0000 
	9	-9	-8	332	185	325	0.09	0.2	1.0000 
	10	9	-8	449	160	332	-2.02	0.08	1.0000 
	9	-10	-8	611	152	486	-1.64	-1.47	1.0000 
	-10	-9	8	566	175	434	-2.02	-0.08	1.0000 
	-10	-8	8	246	121	177	1.55	-1.17	1.0000 
	10	8	-8	231	141	165	1.55	1.17	1.0000 
	8	-10	-8	101	113	48	2.01	1.23	1.0000 
	-10	-7	8	542	161	390	2.99	2.19	1.0000 
	10	7	-8	333	138	213	2.99	-2.19	1.0000 
	7	-10	-8	682	187	508	2.49	-0.51	1.0000 
	-10	-6	8	1831	306	1691	-0.95	3.07	1.0000 
	10	6	-8	1733	350	1596	-0.95	-3.07	1.0000 
	6	-10	-8	2429	338	2264	-1.02	-1.36	1.0000 
	10	5	-8	4216	471	4580	-1.89	0.63	1.0000 
	-10	-5	8	4195	402	4558	-1.89	-0.63	1.0000 
	5	-10	-8	3441	398	3809	-2.02	-0.29	1.0000 
	10	5	8	3825	400	4184	-1.97	-0.88	1.0000 
	10	4	-8	2158	375	2292	0.77	1.39	1.0000 
	-10	-4	8	1787	291	1909	0.77	-1.39	1.0000 
	4	-10	-8	1939	307	2051	0.62	1.59	1.0000 
	10	4	8	1816	317	2041	1.75	0.24	1.0000 
	3	-10	8	648	171	624	0.3	-1.82	1.0000 
	10	3	-8	456	200	441	0.19	1.28	1.0000 
	10	3	8	475	167	454	0.29	-0.62	1.0000 
	3	-10	-8	653	183	633	0.28	2.44	1.0000 
	10	2	-8	178	178	300	-2.72	0.24	1.0000 
	2	-10	-8	28	81	-4	-3.34	-1.08	1.0000 
	10	2	8	106	130	212	-2.85	0.26	1.0000 
	2	-10	8	56	122	162	-3.28	1.25	1.0000 
	10	1	-8	5517	507	5476	-0.16	-0.43	1.0000 
	1	-10	-8	6578	477	6384	-0.78	-0.47	1.0000 
	1	-10	8	5348	397	5198	-0.64	0.8	1.0000 
	10	1	8	5098	467	5085	-0.04	0.43	1.0000 
	10	0	-8	5911	488	5148	3.32	1.66	1.0000 
	0	-10	-8	6254	441	5423	3.52	1.77	1.0000 
	10	0	8	6128	480	5312	3.5	-1.56	1.0000 
	0	-10	8	6609	431	5784	3.41	-1.31	1.0000 
	-1	-10	-8	5561	445	5537	-0.09	-0.27	1.0000 
	10	-1	8	4579	457	4455	-0.58	0.57	1.0000 
	10	-1	-8	5215	488	5040	-0.78	-0.55	1.0000 
	-1	-10	8	5614	427	5597	-0.03	0.75	1.0000 
	-2	-10	-8	163	153	294	-2.95	-0.19	1.0000 
	-2	-10	8	116	138	223	-2.85	-0.05	1.0000 
	10	-2	-8	44	161	146	-3.32	-1.61	1.0000 
	10	-2	8	113	158	247	-3.34	0.68	1.0000 
	-3	-10	-8	671	204	654	0.18	1.4	1.0000 
	-3	-10	8	274	169	269	0.11	-0.05	1.0000 
	10	-3	-8	502	202	480	0.29	1.82	1.0000 
	10	-3	8	391	184	365	0.4	-2.33	1.0000 
	-4	-10	-8	1370	281	1485	0.79	1.65	1.0000 
	10	-4	-8	2118	354	2209	0.45	1.47	1.0000 
	10	-4	8	1644	361	1744	0.62	-1.48	1.0000 
	-4	-10	8	1795	317	1899	0.94	1.54	1.0000 
	-5	-10	-8	3478	373	3796	-1.79	0.34	1.0000 
	10	-5	-8	3892	454	4290	-2.09	-0.01	1.0000 
	10	-5	8	4511	529	4950	-2.12	0.13	1.0000 
	-5	-10	8	4213	463	4587	-1.98	-1.18	1.0000 
	10	-6	-8	2076	344	1921	-1.04	-1.39	1.0000 
	-6	-10	-8	2003	309	1866	-0.88	-2.89	1.0000 
	10	-6	8	1941	395	1802	-0.95	1.47	1.0000 
	-6	-10	8	2332	350	2165	-1.24	-0.43	1.0000 
	-7	-10	-8	737	178	559	2.85	-1.82	1.0000 
	-7	-10	8	432	157	293	2.75	1.36	1.0000 
	10	-7	-8	801	201	621	2.44	-0.86	1.0000 
	-8	-10	8	7	93	-60	1.56	-0.7	1.0000 
	-8	-10	-8	126	87	79	1.51	1.49	1.0000 
	-9	-10	8	389	139	294	-1.82	-0.45	1.0000 
	9	10	-8	822	220	681	-1.82	0.45	1.0000 
	-9	-10	-8	684	136	533	-2.07	-0.01	1.0000 
	10	-10	-8	609	233	693	-0.81	-1.45	1.0000 
	10	10	-8	910	257	970	-0.61	-0.28	1.0000 
	9	-11	-8	597	166	667	-0.9	-0.29	1.0000 
	11	9	-8	242	184	323	-1.76	1.15	1.0000 
	-11	-9	8	164	149	231	-1.76	-1.15	1.0000 
	8	-11	-8	393	137	305	-1.55	-0.52	1.0000 
	-11	-8	8	474	122	355	-1.99	-0.14	1.0000 
	11	8	-8	89	113	42	-1.99	0.14	1.0000 
	-11	-7	8	885	223	941	0.62	1.65	1.0000 
	7	-11	-8	552	180	593	0.41	1.53	1.0000 
	11	7	-8	714	239	764	0.62	-1.65	1.0000 
	11	6	-8	1555	342	1660	-0.72	-1.4	1.0000 
	-11	-6	8	2385	346	2516	-0.72	1.4	1.0000 
	-11	-5	8	3344	395	3487	0.82	-0.01	1.0000 
	11	5	8	3155	405	3310	0.91	-0.03	1.0000 
	11	5	-8	3352	473	3495	0.82	0.01	1.0000 
	-11	-4	8	1010	225	986	0.26	0.06	1.0000 
	11	4	8	1276	271	1256	0.18	-0.07	1.0000 
	11	4	-8	1017	272	993	0.26	-0.06	1.0000 
	3	-11	-8	333	152	273	-1.19	0.39	1.0000 
	11	3	-8	303	146	247	-1.39	1.92	1.0000 
	11	3	8	374	146	326	-1.28	-2.55	1.0000 
	11	2	-8	206	167	276	-1.02	1.72	1.0000 
	11	2	8	96	116	131	-0.94	-0.86	1.0000 
	2	-11	8	51	119	79	-1.16	-0.2	1.0000 
	2	-11	-8	45	125	74	-1.27	0.1	1.0000 
	1	-11	8	1030	230	1089	-0.65	-0.28	1.0000 
	11	1	8	1055	267	1182	-1.04	1.37	1.0000 
	11	1	-8	754	271	842	-0.94	-0.73	1.0000 
	1	-11	-8	942	243	1008	-0.77	0.49	1.0000 
	11	0	8	997	261	1087	0.77	-0.86	1.0000 
	0	-11	8	809	225	874	0.59	-0.84	1.0000 
	11	0	-8	952	283	1028	0.64	0.84	1.0000 
	0	-11	-8	978	247	1071	0.8	0.9	1.0000 
	11	-1	8	1025	269	1073	-0.6	-0.81	1.0000 
	-1	-11	8	883	227	979	-0.89	1	1.0000 
	-1	-11	-8	863	227	971	-1.02	-1.09	1.0000 
	11	-1	-8	873	285	951	-0.89	0.18	1.0000 
	-2	-11	8	283	165	348	-0.88	-1.31	1.0000 
	11	-2	-8	82	151	117	-1.23	-0.35	1.0000 
	-2	-11	-8	6	116	-16	-1.02	1.23	1.0000 
	11	-2	8	4	72	-9	-1.21	-0.74	1.0000 
	11	-3	-8	371	181	307	-1.2	0.4	1.0000 
	11	-3	8	412	174	337	-1.31	-0.21	1.0000 
	-3	-11	8	333	168	277	-1.4	-2.22	1.0000 
	-3	-11	-8	423	169	374	-1.2	2.3	1.0000 
	-4	-11	-8	805	203	788	0.27	-0.55	1.0000 
	-4	-11	8	1336	274	1314	0.14	-0.57	1.0000 
	11	-4	-8	1249	298	1266	0	-1.09	1.0000 
	11	-4	8	952	285	954	0.09	0.81	1.0000 
	-5	-11	-8	3044	389	3185	0.88	-0.43	1.0000 
	11	-5	8	2837	464	2857	0.21	1.16	1.0000 
	11	-5	-8	2762	416	2786	0.24	-1.37	1.0000 
	-5	-11	8	2621	393	2788	1.03	-0.47	1.0000 
	-6	-11	8	1934	346	2029	-0.48	1.86	1.0000 
	11	-6	8	2391	464	2563	-1.14	0.14	1.0000 
	-6	-11	-8	1959	315	2053	-0.59	-1.03	1.0000 
	11	-6	-8	2088	390	2216	-0.94	0.27	1.0000 
	-7	-11	-8	516	164	561	0.68	-1.31	1.0000 
	-7	-11	8	750	221	800	0.59	2	1.0000 
	11	-7	8	341	256	367	0.36	-1.22	1.0000 
	11	-7	-8	728	225	770	0.38	1.24	1.0000 
	-8	-11	-8	200	110	131	-2.06	0.99	1.0000 
	11	-8	8	6	186	-43	-1.5	0.44	1.0000 
	-8	-11	8	384	134	283	-2	-0.6	1.0000 
	-9	-11	-8	598	169	719	-1.69	1.93	1.0000 
	-12	-7	8	267	129	419	-2.75	-0.82	1.0000 
	12	7	-8	268	149	420	-2.75	0.82	1.0000 
	-12	-6	8	643	175	535	-1.62	-0.8	1.0000 
	12	6	-8	646	174	538	-1.62	0.8	1.0000 
	12	5	-8	364	142	248	2.31	-0.61	1.0000 
	-12	-5	8	983	179	786	2.31	0.61	1.0000 
	5	-12	-8	664	174	518	2.02	-0.08	1.0000 
	4	-12	-8	303	155	343	0.63	-3.02	1.0000 
	12	4	-8	193	128	234	0.99	-0.68	1.0000 
	12	4	8	457	158	459	-0.09	-0.84	1.0000 
	12	3	8	832	225	865	-0.36	0.22	1.0000 
	12	3	-8	388	179	406	-0.29	-0.09	1.0000 
	3	-12	-8	429	190	533	-0.69	-3.93	1.0000 
	2	-12	8	560	171	631	0.9	-1.74	1.0000 
	12	2	8	447	182	481	0.53	-0.85	1.0000 
	2	-12	-8	413	177	475	0.88	2.19	1.0000 
	12	2	-8	686	248	737	0.56	1.7	1.0000 
	12	1	8	53	104	116	-2.15	-0.96	1.0000 
	1	-12	-8	91	146	202	-1.19	2.91	1.0000 
	12	1	-8	112	169	210	-2.23	1.39	1.0000 
	1	-12	8	89	131	197	-1.26	-2.85	1.0000 
	0	-12	-8	61	139	133	-3.13	-0.4	1.0000 
	12	0	-8	21	107	-81	-3.09	0.01	1.0000 
	0	-12	8	106	134	200	-3.11	-0.67	1.0000 
	12	0	8	10	97	36	-3.1	0	1.0000 
	12	-1	8	1	79	33	-1.34	-2.85	1.0000 
	-1	-12	-8	129	139	225	-2.19	1.08	1.0000 
	12	-1	-8	70	154	165	-1.09	2.82	1.0000 
	-1	-12	8	434	177	607	-2.16	-1.34	1.0000 
	-2	-12	8	580	198	623	0.57	-1	1.0000 
	-2	-12	-8	596	198	638	0.52	1.48	1.0000 
	12	-2	-8	711	268	791	0.88	1.88	1.0000 
	12	-2	8	430	196	495	0.91	-2.17	1.0000 
	12	-3	-8	309	183	384	-0.56	-3.84	1.0000 
	-3	-12	8	431	186	443	-0.18	-0.87	1.0000 
	-3	-12	-8	742	212	782	-0.41	-0.83	1.0000 
	12	-3	8	403	167	482	-0.61	3.29	1.0000 
	12	-4	8	279	164	323	0.81	2.52	1.0000 
	-4	-12	-8	414	174	468	0.91	-1.31	1.0000 
	12	-4	-8	256	169	299	0.82	-2.69	1.0000 
	-4	-12	8	494	204	584	0.81	-2.4	1.0000 
	-5	-12	8	481	182	337	2.43	0.33	1.0000 
	-5	-12	-8	1062	198	847	2.38	-0.34	1.0000 
	12	-5	-8	545	189	412	2.01	0.31	1.0000 
	12	-5	8	768	251	609	2.05	0.1	1.0000 
	-6	-12	-8	878	219	773	-1.5	1.33	1.0000 
	12	-6	8	522	219	415	-1.83	-0.96	1.0000 
	12	-6	-8	490	174	398	-1.81	1.63	1.0000 
	-6	-12	8	420	168	343	-1.33	1.91	1.0000 
	-7	-12	-8	137	124	250	-2.7	1.06	1.0000 
	-7	-12	8	82	177	177	-2.82	0.31	1.0000 
	12	-7	-8	22	125	74	-2.66	1.58	1.0000 
	12	-7	8	161	172	279	-2.54	-1.7	1.0000 
	-8	-12	-8	444	157	584	-2	-0.86	1.0000 
	6	-13	-8	247	144	211	-0.78	-0.43	1.0000 
	-13	-6	8	3	89	-4	-0.3	1.06	1.0000 
	5	-13	-8	290	127	291	0.1	1.65	1.0000 
	13	5	-8	86	114	86	-0.03	0.54	1.0000 
	13	4	8	2	92	-78	0.56	-0.78	1.0000 
	13	4	-8	4	104	-19	1.06	0.93	1.0000 
	4	-13	-8	67	110	96	1.06	0.11	1.0000 
	13	3	-8	69	100	141	2.11	-1.09	1.0000 
	13	3	8	21	95	-12	1.06	2.9	1.0000 
	3	-13	-8	134	158	280	1.5	-3.13	1.0000 
	13	2	-8	604	211	576	0.39	0.23	1.0000 
	13	2	8	592	183	613	-0.27	0.4	1.0000 
	2	-13	-8	282	160	266	0.33	-0.25	1.0000 
	13	1	8	40	89	25	-1.14	-2.09	1.0000 
	1	-13	8	6	93	-60	-0.9	-1.31	1.0000 
	1	-13	-8	339	146	314	-0.79	1.31	1.0000 
	13	1	-8	493	192	454	-1.38	1.99	1.0000 
	0	-13	8	21	113	47	-1.6	-0.74	1.0000 
	13	0	-8	21	133	47	-1.59	0.67	1.0000 
	13	0	8	92	103	142	-1.6	-0.6	1.0000 
	0	-13	-8	171	151	236	-1.55	0.61	1.0000 
	-1	-13	-8	189	152	166	-1.22	1.98	1.0000 
	13	-1	8	4	74	-73	-0.9	-1.04	1.0000 
	13	-1	-8	79	123	67	-0.71	1.4	1.0000 
	-1	-13	8	127	125	107	-1.28	-2.18	1.0000 
	13	-2	-8	482	190	469	0.2	-0.23	1.0000 
	13	-2	8	331	131	302	0.54	-0.11	1.0000 
	-2	-13	-8	235	132	229	0.15	-0.48	1.0000 
	-2	-13	8	737	195	730	0.08	-0.41	1.0000 
	13	-3	-8	232	149	430	1.38	-3.42	1.0000 
	13	-3	8	36	110	100	1.99	1.81	1.0000 
	-3	-13	-8	108	123	222	1.57	-2.6	1.0000 
	-3	-13	8	145	140	228	1.75	1.05	1.0000 
	13	-4	8	45	122	79	1.43	-0.3	1.0000 
	-4	-13	-8	370	171	422	0.79	0.63	1.0000 
	-4	-13	8	233	172	296	1.02	-1.38	1.0000 
	13	-4	-8	91	129	123	1.05	-0.12	1.0000 
	13	-5	-8	392	171	395	0.04	1.54	1.0000 
	-5	-13	-8	2	106	-67	-0.05	0.95	1.0000 
	-5	-13	8	153	120	151	0.02	-0.48	1.0000 
	13	-6	-8	1	137	-27	-0.76	-0.2	1.0000 
	13	-7	-8	193	147	327	-2.77	-0.39	1.0000 
	14	4	8	391	124	356	0.65	0.26	1.0000 
	14	3	8	132	133	167	0.97	0.27	1.0000 
	14	2	8	495	166	508	0.21	0.64	1.0000 
	14	1	8	1209	295	1196	0.16	0.29	1.0000 
	1	-14	8	1363	266	1389	-0.12	0.99	1.0000 
	14	0	8	1260	325	1231	-0.27	0.07	1.0000 
	0	-14	8	1157	240	1139	-0.18	0.07	1.0000 
	-1	-14	8	912	220	893	0.23	0.19	1.0000 
	14	-1	8	741	256	749	0.03	1.16	1.0000 
	14	-1	-8	702	257	728	-0.22	-0.99	1.0000 
	-2	-14	8	527	190	544	0.25	0.27	1.0000 
	14	-2	-8	245	164	244	0	-0.54	1.0000 
	1	-1	-9	5515	325	5297	1.01	-0.38	1.0000 
	1	-1	-9	6085	291	5856	1.01	-0.38	1.0000 
	-1	-1	-9	5146	326	5071	-0.37	-0.32	1.0000 
	-1	1	-9	5370	298	5183	0.95	-1.19	1.0000 
	1	1	-9	5410	294	5363	-0.21	0.12	1.0000 
	2	1	-9	20904	884	21899	-2.31	1.18	1.0000 
	-2	-1	-9	21497	926	22586	-2.47	0.56	1.0000 
	-1	2	-9	21350	873	22441	2.37	-1.76	1.0000 
	2	1	-9	21673	944	22686	-2.31	1.18	1.0000 
	1	-2	-9	21483	853	22690	2.6	-2.03	1.0000 
	1	-2	9	20788	776	21864	2.37	1.76	1.0000 
	1	-2	-9	21210	935	22410	2.6	-2.03	1.0000 
	-1	-2	-9	20577	928	21601	-2.4	1.15	1.0000 
	2	-1	-9	21253	889	22457	2.63	-1.62	1.0000 
	2	-1	-9	20747	915	21937	2.63	-1.62	1.0000 
	-1	-2	9	20867	817	21866	-2.31	-0.68	1.0000 
	-2	1	-9	21141	895	22251	2.4	-2.14	1.0000 
	1	2	-9	21768	856	22788	-2.31	0.68	1.0000 
	-2	-2	9	33758	1161	32852	-2.03	-5.14	1.0000 
	-2	-2	-9	32811	1279	31805	-2.24	5.14	1.0000 
	2	2	-9	33935	1323	33026	-2.03	5.14	1.0000 
	2	-2	-9	32063	1279	30932	1.95	-7.64	1.0000 
	2	-2	-9	33503	1225	32350	1.95	-7.64	1.0000 
	2	-2	9	34070	1061	33049	1.69	7.78	1.0000 
	-2	2	-9	34033	1235	33012	1.69	-7.78	1.0000 
	2	2	-9	33561	1207	32657	-2.03	5.14	1.0000 
	-3	-2	9	15087	617	14876	0.47	-1.45	1.0000 
	-3	-2	-9	14144	672	13927	0.51	1.39	1.0000 
	3	2	-9	13802	677	13600	0.47	1.45	1.0000 
	3	2	-9	13846	597	13644	0.47	1.45	1.0000 
	2	-3	-9	14226	677	14047	-0.82	-2.94	1.0000 
	3	2	9	14497	600	14277	0.51	-1.39	1.0000 
	2	-3	-9	13734	574	13558	-0.82	-2.94	1.0000 
	2	-3	9	14194	515	14017	-0.84	3.17	1.0000 
	-3	-1	-9	16234	680	14620	-4.43	1.37	1.0000 
	-1	3	-9	16191	608	15128	2.77	-1.71	1.0000 
	1	-3	-9	16083	696	14961	2.92	-2.24	1.0000 
	1	-3	-9	16266	570	15138	2.92	-2.24	1.0000 
	3	1	-9	16517	693	14901	-4.39	1.35	1.0000 
	1	-3	9	15832	562	14781	2.77	1.71	1.0000 
	3	1	-9	15744	639	14167	-4.39	1.35	1.0000 
	1	3	-9	16750	593	15114	-4.39	0.91	1.0000 
	-1	-3	-9	16449	702	14839	-4.43	1.92	1.0000 
	-1	-3	9	16282	608	14670	-4.39	-0.91	1.0000 
	3	-1	-9	16084	668	14947	2.97	-2.05	1.0000 
	3	-1	-9	16066	687	14930	2.97	-2.05	1.0000 
	-3	1	-9	16336	676	15302	2.67	-1.8	1.0000 
	-2	-3	-9	14468	679	14236	0.53	1.6	1.0000 
	3	-2	-9	13729	622	13549	-0.83	-2.95	1.0000 
	2	3	-9	14147	568	13949	0.46	1.34	1.0000 
	3	-2	-9	13831	670	13651	-0.83	-2.95	1.0000 
	2	3	9	14741	553	14506	0.53	-1.6	1.0000 
	-2	-3	9	15252	612	15047	0.46	-1.34	1.0000 
	3	-3	9	16631	689	20165	-8.73	-0.08	1.0000 
	3	-3	-9	17362	919	20995	-8.84	0.83	1.0000 
	-3	-3	9	16414	827	20619	10.25	1.36	1.0000 
	3	-3	-9	17599	847	21256	-8.84	0.83	1.0000 
	-3	-3	-9	15269	769	19425	10.42	-1.88	1.0000 
	-3	-3	-9	16210	906	20485	10.42	-1.88	1.0000 
	3	3	-9	16103	938	20270	10.25	-1.36	1.0000 
	3	3	-9	15639	795	19749	10.25	-1.36	1.0000 
	3	3	9	16512	809	20824	10.42	1.88	1.0000 
	-4	-3	-9	11575	559	9694	6.16	-0.93	1.0000 
	3	-4	9	11986	413	10341	-5.23	0.41	1.0000 
	-4	-3	9	13215	542	11245	6	0.62	1.0000 
	4	3	9	13151	510	11141	6.16	0.93	1.0000 
	3	-4	-9	12370	495	10766	-4.97	0.3	1.0000 
	3	-4	-9	12509	587	10896	-4.97	0.3	1.0000 
	4	3	-9	12986	604	11033	6	-0.62	1.0000 
	-4	-3	-9	12472	464	10517	6.16	-0.93	1.0000 
	2	-4	-9	6645	326	7087	-1.79	0.02	1.0000 
	4	2	-9	6719	446	7194	1.91	0.04	1.0000 
	-4	-2	-9	6303	316	6805	2.01	-0.78	1.0000 
	-4	-2	9	6691	397	7165	1.91	-0.04	1.0000 
	4	2	9	6449	376	6957	2.01	0.78	1.0000 
	2	-4	-9	6352	437	6785	-1.79	0.02	1.0000 
	-4	-2	-9	6240	426	6740	2.01	-0.78	1.0000 
	2	-4	9	6255	312	6653	-1.68	-0.39	1.0000 
	1	-4	9	18196	659	17323	-2.17	0.45	1.0000 
	1	-4	-9	17675	798	16873	-2.02	-0.55	1.0000 
	1	-4	-9	18287	645	17471	-2.02	-0.55	1.0000 
	-4	-1	-9	17943	792	17420	1.33	0.54	1.0000 
	-4	-1	-9	18497	611	17966	1.33	0.54	1.0000 
	4	1	-9	17678	808	17184	1.26	0.38	1.0000 
	4	-1	-9	19429	820	18549	-2.12	-0.42	1.0000 
	-1	-4	-9	19768	846	19195	1.39	0.68	1.0000 
	1	4	-9	18412	676	17896	1.29	0.47	1.0000 
	-1	-4	9	18195	726	17682	1.29	-0.47	1.0000 
	4	-2	-9	6327	431	6776	-1.88	0.41	1.0000 
	-2	-4	-9	6279	427	6787	2.08	-0.3	1.0000 
	-2	-4	9	6309	381	6764	1.86	0.29	1.0000 
	4	-2	-9	6988	409	7459	-1.88	0.41	1.0000 
	2	4	-9	6891	307	7366	1.86	-0.29	1.0000 
	2	4	9	6215	284	6721	2.08	0.3	1.0000 
	4	-3	-9	12225	529	10617	-5.03	0	1.0000 
	3	4	-9	12594	443	10617	6.15	-0.25	1.0000 
	3	4	-9	12413	601	10451	6.15	-0.25	1.0000 
	4	-3	9	12426	362	10766	-5.15	-0.06	1.0000 
	3	4	9	11657	450	9808	6.05	1.12	1.0000 
	-3	-4	-9	12061	562	10179	6.05	-1.12	1.0000 
	-3	-4	-9	13173	500	11203	6.05	-1.12	1.0000 
	4	-3	-9	11849	579	10267	-5.03	0	1.0000 
	-3	-4	9	13171	533	11148	6.15	0.25	1.0000 
	-4	-4	9	6503	437	7805	5.19	1.17	1.0000 
	4	4	9	6586	377	7779	4.73	0.74	1.0000 
	4	-4	9	5523	288	6949	-6.01	-0.63	1.0000 
	4	-4	-9	5707	403	6960	-5.24	0.57	1.0000 
	-4	-4	-9	6063	380	7210	4.73	-0.74	1.0000 
	4	4	-9	5432	480	6627	5.19	-1.17	1.0000 
	-4	-4	-9	5818	449	6942	4.73	-0.74	1.0000 
	4	-4	-9	5811	466	7075	-5.24	0.57	1.0000 
	4	-5	9	192	62	173	-0.67	-0.93	1.0000 
	-5	-4	-9	285	141	299	-0.14	-0.97	1.0000 
	5	4	-9	60	107	68	0.01	-1.89	1.0000 
	4	-5	-9	94	71	91	-0.42	1.4	1.0000 
	-5	-4	9	87	106	98	0.01	1.89	1.0000 
	5	4	9	86	61	93	-0.14	0.97	1.0000 
	-5	-4	-9	218	86	230	-0.14	-0.97	1.0000 
	4	-5	-9	101	108	98	-0.42	1.4	1.0000 
	3	-5	-9	124	104	73	2.41	-1.95	1.0000 
	-5	-3	-9	240	114	141	-2.66	1.18	1.0000 
	5	3	9	130	70	59	-2.66	-1.18	1.0000 
	5	3	-9	144	100	67	-2.79	1.3	1.0000 
	-5	-3	9	21	89	-14	-2.79	-1.3	1.0000 
	-5	-3	-9	210	64	118	-2.66	1.18	1.0000 
	3	-5	9	185	59	134	2.19	2.09	1.0000 
	3	-5	-9	119	51	69	2.41	-1.95	1.0000 
	2	-5	9	806	131	1078	-2.95	1.09	1.0000 
	5	2	9	725	158	1010	3.2	-1.21	1.0000 
	2	-5	-9	720	101	999	-3.09	-2.44	1.0000 
	-5	-2	9	767	190	1072	3.29	-1.65	1.0000 
	2	-5	-9	859	205	1162	-3.09	-2.44	1.0000 
	-5	-2	-9	819	114	1121	3.2	1.21	1.0000 
	5	2	-9	715	195	1010	3.29	1.65	1.0000 
	1	-5	9	4026	312	5520	-7.21	-1.79	1.0000 
	-5	-1	-9	4715	261	6416	7.6	-1.46	1.0000 
	1	-5	-9	4846	417	6485	-7.28	0.78	1.0000 
	5	1	9	4340	382	5977	7.6	1.46	1.0000 
	1	-5	-9	4436	251	6009	-7.28	0.78	1.0000 
	5	1	-9	4143	409	5753	7.64	-1.42	1.0000 
	-1	-5	9	3901	340	5457	7.58	1.83	1.0000 
	5	-1	-9	3843	380	5351	-7.44	1.22	1.0000 
	-1	-5	-9	4738	421	6478	7.76	-1.16	1.0000 
	-2	-5	-9	680	187	961	3.21	1.78	1.0000 
	-2	-5	9	576	161	826	3.14	-1.08	1.0000 
	5	-2	-9	822	181	1103	-2.99	-1.54	1.0000 
	-3	-5	9	178	101	98	-2.8	-1.68	1.0000 
	-3	-5	-9	121	76	50	-2.77	1.1	1.0000 
	-3	-5	-9	169	98	83	-2.77	1.1	1.0000 
	5	-3	-9	189	84	126	2.51	-1.95	1.0000 
	3	5	9	226	38	125	-2.77	-1.1	1.0000 
	5	-4	-9	182	84	170	-0.41	0.7	1.0000 
	-4	-5	-9	167	95	184	-0.09	-1.61	1.0000 
	4	5	-9	111	112	115	-0.01	-1.04	1.0000 
	-4	-5	-9	148	122	164	-0.09	-1.61	1.0000 
	4	5	9	65	45	74	-0.09	1.61	1.0000 
	-4	-5	9	229	125	236	-0.01	1.04	1.0000 
	5	-5	-9	261	166	419	-2.71	1.43	1.0000 
	5	5	-9	80	132	203	2.96	-3.01	1.0000 
	-5	-5	9	29	128	108	2.96	3.01	1.0000 
	5	-5	-9	104	87	209	-2.71	1.43	1.0000 
	-5	-5	-9	219	119	378	2.71	-2.21	1.0000 
	-5	-5	-9	237	155	401	2.71	-2.21	1.0000 
	5	5	9	216	95	374	2.71	2.21	1.0000 
	5	-6	-9	1023	169	971	-0.58	0.92	1.0000 
	5	-6	-9	902	214	853	-0.58	0.92	1.0000 
	6	5	9	868	151	832	0.42	0.41	1.0000 
	-6	-5	9	798	199	749	0.62	0.95	1.0000 
	-6	-5	-9	834	155	799	0.42	-0.41	1.0000 
	6	5	-9	911	222	859	0.62	-0.95	1.0000 
	-6	-4	9	412	164	555	-2.2	-0.05	1.0000 
	4	-6	9	396	105	512	1.87	-0.31	1.0000 
	-6	-4	-9	416	131	564	-2.22	-0.36	1.0000 
	6	4	9	356	128	494	-2.22	0.36	1.0000 
	6	4	-9	499	207	655	-2.2	0.05	1.0000 
	4	-6	-9	235	153	337	2.05	0.04	1.0000 
	4	-6	-9	194	100	288	2.05	0.04	1.0000 
	-6	-3	-9	3766	222	3454	-1.81	0.8	1.0000 
	-6	-3	9	3786	300	3494	-1.66	-0.46	1.0000 
	6	3	-9	2976	330	2717	-1.66	0.46	1.0000 
	3	-6	9	3103	215	2934	1.02	0.07	1.0000 
	6	3	9	3190	262	2903	-1.81	-0.8	1.0000 
	3	-6	-9	3555	322	3372	0.99	-0.66	1.0000 
	3	-6	-9	3072	214	2902	0.99	-0.66	1.0000 
	6	2	-9	7843	485	6992	3.28	0.4	1.0000 
	-6	-2	-9	7926	315	7094	3.15	1.3	1.0000 
	2	-6	-9	7397	456	6588	-3.32	-1.31	1.0000 
	-6	-2	9	7295	414	6475	3.28	-0.4	1.0000 
	2	-6	9	7347	351	6571	-3.21	1.45	1.0000 
	6	2	9	7573	429	6760	3.15	-1.3	1.0000 
	6	1	-9	4	89	31	3.92	-0.65	1.0000 
	6	1	9	23	80	99	3.98	0.95	1.0000 
	-6	-1	-9	112	47	258	3.98	-0.95	1.0000 
	1	-6	9	36	64	-67	-3.9	1.02	1.0000 
	1	-6	-9	34	84	-2	-3.84	-0.68	1.0000 
	-1	-6	-9	15	104	78	3.96	-1.02	1.0000 
	-1	-6	9	35	79	-10	3.9	0.65	1.0000 
	6	-1	-9	6	90	23	-4.01	-0.92	1.0000 
	6	-2	-9	7734	458	6932	-3.25	-1.73	1.0000 
	-2	-6	9	7888	416	7081	3.07	-0.96	1.0000 
	-2	-6	-9	7403	444	6585	3.23	0.88	1.0000 
	-2	-6	-9	7790	421	6950	3.23	0.88	1.0000 
	-3	-6	-9	3646	307	3336	-1.85	0.96	1.0000 
	-3	-6	-9	3463	272	3161	-1.85	0.96	1.0000 
	6	-3	-9	3368	293	3168	1.13	-0.56	1.0000 
	-3	-6	9	3751	301	3431	-1.82	-0.43	1.0000 
	6	-4	-9	257	139	360	2.03	0.28	1.0000 
	-4	-6	-9	607	188	782	-2.25	0.07	1.0000 
	-4	-6	9	293	171	426	-2.34	0.16	1.0000 
	-4	-6	-9	334	138	467	-2.25	0.07	1.0000 
	5	6	-9	916	236	874	0.49	-0.75	1.0000 
	6	-5	-9	968	179	923	-0.5	0.65	1.0000 
	-5	-6	-9	1020	206	968	0.56	-0.42	1.0000 
	-5	-6	9	1215	228	1166	0.49	0.75	1.0000 
	-5	-6	-9	984	183	933	0.56	-0.42	1.0000 
	-6	-6	-9	4438	347	4957	2.56	-1.28	1.0000 
	-6	-6	9	3595	367	4050	2.5	1.45	1.0000 
	6	-6	-9	4604	451	5340	-3.42	1.27	1.0000 
	6	6	-9	3916	437	4391	2.5	-1.45	1.0000 
	6	-6	-9	3831	361	4505	-3.42	1.27	1.0000 
	6	-7	-9	933	219	721	-2.56	0.34	1.0000 
	7	6	-9	1030	246	847	2.19	0.73	1.0000 
	-7	-6	9	956	210	780	2.19	-0.73	1.0000 
	-7	-6	-9	742	142	575	2.19	-0.11	1.0000 
	7	5	-9	197	168	315	-2.44	1.77	1.0000 
	5	-7	-9	417	184	535	1.81	-0.34	1.0000 
	7	5	9	367	148	526	-2.48	-1.43	1.0000 
	-7	-5	-9	313	129	460	-2.48	1.43	1.0000 
	-7	-5	9	321	176	470	-2.44	-1.77	1.0000 
	7	4	-9	6710	493	5885	-3.54	0.88	1.0000 
	-7	-4	9	6320	419	5520	-3.54	-0.88	1.0000 
	4	-7	-9	6993	457	6225	3.06	-2.14	1.0000 
	7	4	9	7142	418	6233	-3.76	-0.62	1.0000 
	-7	-4	-9	6459	337	5596	-3.76	0.62	1.0000 
	7	3	-9	15579	878	15376	0.61	-0.95	1.0000 
	7	3	9	17615	829	17430	0.48	0.21	1.0000 
	-7	-3	9	15437	763	15235	0.61	0.95	1.0000 
	3	-7	9	16177	677	15860	-0.79	-0.76	1.0000 
	-7	-3	-9	16821	653	16640	0.48	-0.21	1.0000 
	3	-7	-9	16940	841	16526	-1.05	0.37	1.0000 
	7	2	-9	13966	813	14624	1.93	-1.54	1.0000 
	7	2	9	12372	729	13053	2.08	1	1.0000 
	2	-7	9	13498	633	14443	-2.6	-1	1.0000 
	2	-7	-9	13877	768	14853	-2.66	0.88	1.0000 
	1	-7	9	1518	197	1531	0.27	1.7	1.0000 
	7	1	9	1524	235	1611	-0.82	0.78	1.0000 
	7	1	-9	1642	276	1761	-0.98	-0.09	1.0000 
	1	-7	-9	1528	238	1569	0.52	-1.84	1.0000 
	-1	-7	9	1428	218	1541	-1.02	0.32	1.0000 
	-1	-7	-9	1698	253	1804	-0.89	-0.32	1.0000 
	7	-1	-9	1546	254	1582	0.46	-1.54	1.0000 
	-2	-7	-9	13044	726	13781	2.2	-1.14	1.0000 
	-2	-7	-9	13623	694	14377	2.2	-1.14	1.0000 
	7	-2	-9	12380	755	13350	-2.82	0.58	1.0000 
	-2	-7	9	13525	681	14193	1.97	1.16	1.0000 
	-3	-7	-9	16452	799	16220	0.62	-0.27	1.0000 
	7	-3	-9	16072	823	15663	-1.09	-0.07	1.0000 
	-3	-7	-9	15806	749	15578	0.62	-0.27	1.0000 
	-3	-7	9	15791	750	15556	0.7	1.03	1.0000 
	-4	-7	9	6069	407	5254	-3.66	-0.54	1.0000 
	7	-4	-9	6762	443	6001	3.09	-2	1.0000 
	-4	-7	-9	7077	413	6198	-3.69	1.1	1.0000 
	-4	-7	-9	6572	439	5726	-3.69	1.1	1.0000 
	5	7	-9	265	175	400	-2.44	1.75	1.0000 
	-5	-7	-9	245	139	376	-2.44	1.72	1.0000 
	-5	-7	-9	526	195	713	-2.44	1.72	1.0000 
	-5	-7	9	234	172	362	-2.44	-1.75	1.0000 
	7	-5	-9	434	167	559	1.87	-0.22	1.0000 
	-6	-7	-9	919	165	727	2.37	0.48	1.0000 
	7	-6	-9	881	187	689	-2.48	0.72	1.0000 
	6	7	-9	880	233	706	2.1	0.05	1.0000 
	-6	-7	9	950	213	769	2.1	-0.05	1.0000 
	7	7	-9	1964	388	2556	4.4	-1.79	1.0000 
	-7	-7	9	2033	348	2635	4.4	1.79	1.0000 
	7	-7	-9	2670	408	3364	-4.1	1.09	1.0000 
	-7	-7	-9	2367	315	3005	4.31	-1.47	1.0000 
	-8	-7	-9	4992	359	4762	1.13	-0.21	1.0000 
	-8	-7	9	4500	406	4207	1.49	0	1.0000 
	7	-8	-9	5179	464	5017	-0.82	-0.55	1.0000 
	8	7	-9	5038	486	4728	1.49	0	1.0000 
	6	-8	-9	2138	327	2151	-0.02	-0.73	1.0000 
	-8	-6	9	1686	296	1743	0.54	-0.97	1.0000 
	8	6	-9	1656	330	1713	0.54	0.97	1.0000 
	-8	-6	-9	1835	233	1860	0.27	0.85	1.0000 
	8	5	9	174	102	161	0.39	-0.99	1.0000 
	-8	-5	9	345	148	326	0.37	-0.61	1.0000 
	5	-8	-9	193	135	184	-0.24	0.41	1.0000 
	8	5	-9	245	155	229	0.37	0.61	1.0000 
	8	4	9	4029	349	4154	-0.73	-1.05	1.0000 
	4	-8	-9	3663	368	3707	0.13	-1.14	1.0000 
	-8	-4	9	3481	342	3600	-0.72	-0.73	1.0000 
	8	4	-9	3747	406	3870	-0.72	0.73	1.0000 
	-8	-3	9	17287	825	17291	0.07	1.1	1.0000 
	3	-8	9	15911	731	16361	-1.17	-0.22	1.0000 
	8	3	9	17373	891	17423	0.18	0.86	1.0000 
	3	-8	-9	16343	885	16874	-1.39	-0.16	1.0000 
	8	3	-9	17519	965	17523	0.07	-1.1	1.0000 
	2	-8	9	12273	589	12074	-0.7	-1.19	1.0000 
	8	2	9	11950	699	11943	-0.09	1.68	1.0000 
	2	-8	-9	12333	687	12092	-0.78	0.62	1.0000 
	8	2	-9	12511	764	12536	-0.19	-1.74	1.0000 
	1	-8	9	4047	292	3705	1.89	0.58	1.0000 
	1	-8	-9	3317	304	3027	1.8	-0.88	1.0000 
	8	1	-9	3762	366	3385	-2.09	0.31	1.0000 
	8	1	9	3965	341	3573	-2.16	0.2	1.0000 
	8	-1	-9	3993	371	3669	1.82	-0.74	1.0000 
	-1	-8	-9	4829	369	4391	-2.15	0.15	1.0000 
	8	-1	9	3597	353	3291	1.8	0.63	1.0000 
	-1	-8	9	3527	302	3159	-2.13	-0.03	1.0000 
	-1	-8	-9	3822	323	3434	-2.15	0.15	1.0000 
	-2	-8	-9	11103	646	11105	-0.11	-1.61	1.0000 
	-2	-8	-9	11093	622	11095	-0.11	-1.61	1.0000 
	8	-2	-9	11815	710	11616	-0.7	1.08	1.0000 
	-2	-8	9	11908	625	11863	0.03	1.69	1.0000 
	8	-2	9	12020	727	11786	-0.78	-0.85	1.0000 
	-3	-8	-9	17362	847	17443	0.25	-0.85	1.0000 
	-3	-8	9	15900	791	15973	0.26	1.17	1.0000 
	8	-3	-9	15475	879	15954	-1.28	-0.07	1.0000 
	-3	-8	-9	16167	799	16245	0.25	-0.85	1.0000 
	-4	-8	-9	3683	356	3783	-0.62	1.05	1.0000 
	-4	-8	9	3142	352	3254	-0.71	-0.6	1.0000 
	-4	-8	-9	3542	330	3640	-0.62	1.05	1.0000 
	8	-4	-9	3550	367	3589	0.07	-1.48	1.0000 
	-5	-8	9	3	116	-78	0.47	-0.98	1.0000 
	8	-5	-9	226	141	203	-0.54	0.18	1.0000 
	-5	-8	-9	81	106	71	0.38	0.61	1.0000 
	-5	-8	-9	323	152	304	0.38	0.61	1.0000 
	-6	-8	9	1997	323	2045	0.44	-0.92	1.0000 
	-6	-8	-9	2413	297	2458	0.39	1.06	1.0000 
	8	-6	-9	2362	327	2361	0.05	-0.38	1.0000 
	7	8	-9	4611	461	4342	1.42	-0.67	1.0000 
	-7	-8	-9	4499	365	4265	1.15	0.39	1.0000 
	-7	-8	9	4684	408	4412	1.42	0.67	1.0000 
	8	8	-9	4990	525	5240	1.27	-1.11	1.0000 
	-8	-8	-9	4150	368	4346	1.11	-1.15	1.0000 
	8	-8	-9	4668	483	4935	-1.24	0.45	1.0000 
	-8	-8	9	4838	448	5085	1.27	1.11	1.0000 
	-9	-8	9	2602	376	2662	-0.3	0.94	1.0000 
	8	-9	-9	2381	382	2420	0.13	-1.37	1.0000 
	9	8	-9	2472	419	2530	-0.3	-0.94	1.0000 
	9	7	-9	2126	378	2083	-0.26	-0.8	1.0000 
	-9	-7	9	3178	394	3125	-0.26	0.8	1.0000 
	7	-9	-9	3268	423	3223	0.17	-1.63	1.0000 
	6	-9	-9	1952	319	1969	0.19	-1.53	1.0000 
	9	6	-9	1488	326	1570	-0.71	-0.07	1.0000 
	-9	-6	9	995	237	1063	-0.71	0.07	1.0000 
	-9	-5	9	1227	262	1315	0.8	-1.15	1.0000 
	5	-9	-9	1663	300	1807	-1.15	-0.11	1.0000 
	9	5	-9	1475	320	1571	0.8	1.15	1.0000 
	9	5	9	1205	240	1258	0.48	-1.23	1.0000 
	-9	-4	9	99	128	151	0.89	-1.76	1.0000 
	4	-9	-9	332	167	469	-1.81	1.51	1.0000 
	9	4	-9	121	142	178	0.89	1.76	1.0000 
	9	4	9	107	115	168	0.92	-2.06	1.0000 
	3	-9	9	2910	274	3001	0.59	0.34	1.0000 
	9	3	-9	2809	398	3019	-1.22	0.82	1.0000 
	9	3	9	2472	351	2664	-1.19	-0.78	1.0000 
	3	-9	-9	4165	379	4235	0.41	-0.61	1.0000 
	-9	-3	9	2989	346	3206	-1.22	-0.82	1.0000 
	2	-9	-9	1563	234	1418	1.45	-0.81	1.0000 
	2	-9	9	1067	196	955	1.44	1.09	1.0000 
	9	2	9	1160	238	985	-1.98	0.66	1.0000 
	9	2	-9	1314	270	1146	-1.83	-0.83	1.0000 
	1	-9	-9	710	175	657	-0.69	-0.01	1.0000 
	1	-9	9	432	154	392	-0.58	0.67	1.0000 
	9	1	9	349	157	360	-0.07	-0.74	1.0000 
	9	1	-9	478	196	483	0.04	0.67	1.0000 
	-1	-9	-9	722	195	733	-0.06	0.49	1.0000 
	9	-1	9	622	188	574	-0.64	0.16	1.0000 
	9	-1	-9	255	149	222	-0.65	-0.5	1.0000 
	-1	-9	-9	680	189	691	-0.06	0.49	1.0000 
	-1	-9	9	769	193	785	0	-0.98	1.0000 
	9	-2	9	1385	279	1245	1.52	0.93	1.0000 
	-2	-9	-9	1532	256	1339	-1.93	-0.81	1.0000 
	-2	-9	9	988	213	837	-1.81	0.49	1.0000 
	9	-2	-9	875	223	767	1.45	-0.83	1.0000 
	-2	-9	-9	1530	232	1337	-1.93	-0.81	1.0000 
	9	-3	9	3236	422	3325	0.56	0.48	1.0000 
	-3	-9	-9	3612	390	3845	-1.18	0.92	1.0000 
	-3	-9	-9	3925	371	4168	-1.18	0.92	1.0000 
	-3	-9	9	3312	372	3527	-1.15	-0.76	1.0000 
	9	-3	-9	3198	393	3277	0.5	-0.36	1.0000 
	9	-4	-9	110	136	187	-1.67	1.44	1.0000 
	-4	-9	9	81	141	133	1.12	-1.66	1.0000 
	-4	-9	-9	301	164	399	0.94	1.97	1.0000 
	-4	-9	-9	241	149	329	0.94	1.97	1.0000 
	9	-5	-9	1254	283	1361	-0.98	0.17	1.0000 
	-5	-9	9	1728	312	1828	0.76	-1.31	1.0000 
	-5	-9	-9	1581	281	1673	0.75	0.8	1.0000 
	9	-6	-9	1375	294	1407	0.35	-1.61	1.0000 
	-6	-9	-9	1714	284	1815	-0.82	-0.33	1.0000 
	-6	-9	9	1638	303	1743	-0.8	-0.66	1.0000 
	-7	-9	-9	3156	357	3073	-0.45	-0.7	1.0000 
	-7	-9	9	2859	386	2808	-0.28	0.66	1.0000 
	8	9	-9	2784	431	2880	-0.48	-1.27	1.0000 
	-8	-9	-9	2744	344	2825	-0.42	-1	1.0000 
	-8	-9	9	2865	391	2962	-0.48	1.27	1.0000 
	-9	-9	9	2046	317	1811	-1.75	0.62	1.0000 
	9	-9	-9	1375	313	1233	1.44	1.18	1.0000 
	9	9	-9	1194	266	1016	-1.75	-0.62	1.0000 
	9	-10	-9	40	137	84	1.67	1.57	1.0000 
	-10	-9	9	123	128	180	-1.51	-0.54	1.0000 
	10	9	-9	287	157	372	-1.51	0.54	1.0000 
	8	-10	-9	363	161	332	0.56	0.15	1.0000 
	-10	-8	9	342	140	321	-0.68	1.13	1.0000 
	10	8	-9	4	82	-43	-0.68	-1.13	1.0000 
	-10	-7	9	11	105	64	0.73	3.17	1.0000 
	10	7	-9	3	81	10	0.73	-3.17	1.0000 
	7	-10	-9	7	80	-126	-1.4	0.99	1.0000 
	-10	-6	9	93	122	115	-0.71	-0.17	1.0000 
	6	-10	-9	199	123	209	0.18	-1.2	1.0000 
	10	6	-9	99	112	122	-0.71	0.17	1.0000 
	5	-10	-9	227	168	432	1.74	-3.6	1.0000 
	-10	-5	9	243	158	424	-2.31	-2.56	1.0000 
	10	5	-9	113	138	244	-2.31	2.56	1.0000 
	4	-10	-9	316	151	359	0.78	-0.59	1.0000 
	10	4	9	154	100	224	-1.67	-0.88	1.0000 
	-10	-4	9	95	102	146	-1.52	-1.23	1.0000 
	10	4	-9	94	148	145	-1.52	1.23	1.0000 
	3	-10	-9	562	174	505	0.84	-0.49	1.0000 
	10	3	9	1044	223	928	-1.28	-1.61	1.0000 
	10	3	-9	572	197	489	-1.2	1.06	1.0000 
	10	2	-9	12	125	24	-1	0.19	1.0000 
	10	2	9	64	95	94	-1.13	-0.35	1.0000 
	2	-10	9	1	115	-6	0.38	0.71	1.0000 
	2	-10	-9	1	75	-117	0.48	-0.43	1.0000 
	10	1	-9	51	130	87	1.35	0.82	1.0000 
	1	-10	-9	44	126	89	-1.83	-0.78	1.0000 
	1	-10	9	208	142	295	-1.84	0.36	1.0000 
	1	-10	-9	214	140	305	-1.83	-0.78	1.0000 
	10	1	9	57	109	98	1.35	-1.15	1.0000 
	-1	-10	9	129	135	181	1.26	-0.81	1.0000 
	10	-1	-9	52	135	97	-1.75	-0.67	1.0000 
	-1	-10	-9	186	157	257	1.32	1.29	1.0000 
	10	-1	9	181	132	262	-1.8	0.48	1.0000 
	10	-2	-9	11	105	19	0.36	-0.82	1.0000 
	-2	-10	9	87	137	119	-1.07	-0.34	1.0000 
	-2	-10	-9	3	97	-66	-1.04	0.38	1.0000 
	10	-2	9	36	107	47	0.42	0.44	1.0000 
	-3	-10	-9	756	211	668	-1.12	1.24	1.0000 
	10	-3	-9	837	233	775	0.77	-0.98	1.0000 
	10	-3	9	429	182	373	0.95	0.64	1.0000 
	-3	-10	9	927	219	823	-1.22	-1.65	1.0000 
	10	-4	9	208	175	246	0.84	0.33	1.0000 
	10	-4	-9	151	160	193	1.08	0.02	1.0000 
	-4	-10	-9	287	142	374	-1.5	1.25	1.0000 
	-4	-10	9	249	177	330	-1.55	-0.8	1.0000 
	10	-5	-9	12	120	62	2.47	-1.94	1.0000 
	-5	-10	-9	142	132	272	-2.48	1.89	1.0000 
	10	-5	9	72	177	202	1.59	3.72	1.0000 
	-5	-10	9	304	186	454	-2.53	-0.6	1.0000 
	-6	-10	9	482	217	521	-0.58	0.26	1.0000 
	-6	-10	-9	247	143	286	-0.79	-0.38	1.0000 
	10	-6	-9	112	141	126	0.39	-1.14	1.0000 
	-7	-10	-9	2	93	14	0.76	-3.32	1.0000 
	-7	-10	9	78	115	159	0.8	2.47	1.0000 
	-8	-10	-9	3	69	-127	-0.71	-1.03	1.0000 
	-8	-10	9	3	117	-32	-0.85	0.79	1.0000 
	-9	-10	9	111	118	173	-1.63	-0.94	1.0000 
	10	-9	-9	385	182	510	1.55	1.82	1.0000 
	-9	-10	-9	115	91	165	-1.4	0.34	1.0000 
	10	10	-9	102	102	100	-0.26	0.97	1.0000 
	10	-10	-9	26	124	28	-0.09	-0.32	1.0000 
	9	-11	-9	191	115	209	0.42	0.03	1.0000 
	-11	-8	9	922	199	827	-1.04	0.32	1.0000 
	11	8	-9	361	156	303	-1.04	-0.32	1.0000 
	8	-11	-9	1543	315	1487	0.48	0.01	1.0000 
	7	-11	-9	2098	328	1991	-1.03	1.94	1.0000 
	11	7	-9	1852	378	1829	0.13	-0.78	1.0000 
	-11	-7	9	1661	293	1639	0.13	0.78	1.0000 
	6	-11	-9	1094	264	1199	-1.06	0.42	1.0000 
	-11	-6	9	1194	242	1311	1.13	-0.52	1.0000 
	11	6	-9	768	240	862	1.13	0.52	1.0000 
	11	5	-9	431	179	486	-0.08	2.19	1.0000 
	-11	-5	9	132	128	158	-0.08	-2.19	1.0000 
	11	4	9	172	108	228	-1.25	0.48	1.0000 
	11	4	-9	269	181	356	-1.69	0.14	1.0000 
	11	3	-9	418	176	373	-0.8	0.13	1.0000 
	11	3	9	254	115	225	-0.84	-0.83	1.0000 
	11	2	9	1051	246	1070	-0.32	-1.53	1.0000 
	2	-11	9	864	211	912	0.31	1.39	1.0000 
	11	2	-9	744	243	743	-0.11	1.37	1.0000 
	2	-11	-9	697	223	721	0.11	-1.21	1.0000 
	1	-11	-9	556	192	518	0.64	-0.37	1.0000 
	11	1	9	46	95	34	-0.65	-0.03	1.0000 
	11	1	-9	245	163	220	-0.59	-0.15	1.0000 
	1	-11	9	346	164	321	0.77	1.14	1.0000 
	-1	-11	9	532	184	487	-0.63	-0.24	1.0000 
	11	-1	-9	131	141	114	0.7	-0.78	1.0000 
	11	-1	9	177	130	156	0.69	0.64	1.0000 
	-1	-11	-9	58	112	46	-0.62	-0.29	1.0000 
	11	-2	9	952	269	971	0.02	1.12	1.0000 
	-2	-11	-9	945	227	945	-0.12	1.41	1.0000 
	11	-2	-9	827	270	877	0.32	-1.5	1.0000 
	-2	-11	9	719	224	722	-0.19	-1.62	1.0000 
	-3	-11	9	333	174	310	-0.7	-0.99	1.0000 
	11	-3	-9	4	123	2	0.4	-0.05	1.0000 
	11	-3	9	421	186	398	0.42	-0.1	1.0000 
	-3	-11	-9	253	142	222	-0.78	0.35	1.0000 
	11	-4	9	61	135	127	1.83	2.21	1.0000 
	-4	-11	9	140	157	205	-1.57	0.63	1.0000 
	-4	-11	-9	99	100	151	-1.62	0.2	1.0000 
	11	-4	-9	134	162	207	1.46	-1.76	1.0000 
	-5	-11	9	352	191	343	-0.17	0.22	1.0000 
	-5	-11	-9	179	141	204	-0.16	2.05	1.0000 
	11	-5	-9	44	129	-34	0.69	-4.38	1.0000 
	11	-5	9	79	156	146	0.67	4.59	1.0000 
	11	-6	9	613	279	685	-0.96	-0.32	1.0000 
	-6	-11	9	784	246	899	1.31	0.11	1.0000 
	11	-6	-9	966	268	1058	-0.98	0.18	1.0000 
	-6	-11	-9	1012	220	1107	0.98	0.05	1.0000 
	11	-7	9	1224	360	1154	-0.84	-1.53	1.0000 
	-7	-11	9	1933	349	1912	0.14	0.2	1.0000 
	-7	-11	-9	1495	259	1468	0.15	-1.57	1.0000 
	11	-8	9	1054	353	996	0.54	0.67	1.0000 
	-8	-11	9	1296	288	1186	-1.06	-0.08	1.0000 
	-8	-11	-9	895	175	812	-0.89	-0.84	1.0000 
	-9	-11	-9	442	136	482	-0.66	-0.64	1.0000 
	-12	-7	9	1660	292	1604	-0.58	-0.85	1.0000 
	12	7	-9	2097	405	2034	-0.58	0.85	1.0000 
	-12	-6	9	1106	219	1084	0.18	-0.45	1.0000 
	12	6	-9	602	219	586	0.18	0.45	1.0000 
	12	5	-9	383	126	296	1.57	0.2	1.0000 
	12	4	9	1624	320	1706	0.76	1.16	1.0000 
	4	-12	-9	1153	263	1236	-0.73	0.65	1.0000 
	12	4	-9	1516	346	1552	0.41	-1.62	1.0000 
	12	3	9	3654	416	3900	-1.34	-0.01	1.0000 
	12	3	-9	3107	479	3363	-1.48	-0.27	1.0000 
	3	-12	-9	3682	445	3982	1.73	1.32	1.0000 
	2	-12	-9	6333	495	5949	1.84	-1.9	1.0000 
	12	2	-9	6405	586	6085	-1.25	1.48	1.0000 
	12	2	9	4430	469	4194	-1.08	-1.74	1.0000 
	1	-12	9	1523	287	1672	1.29	0.65	1.0000 
	12	1	-9	1756	365	1890	-1.12	-1.03	1.0000 
	1	-12	-9	1584	322	1715	1.09	-0.1	1.0000 
	12	1	9	2323	384	2446	-0.9	0.85	1.0000 
	-1	-12	-9	1723	316	1848	-1.07	-1.05	1.0000 
	12	-1	9	1733	357	1890	1.27	0.37	1.0000 
	-1	-12	9	1542	292	1656	-1.02	0.93	1.0000 
	12	-1	-9	1541	353	1669	1.09	-0.3	1.0000 
	-2	-12	9	4493	412	4226	-1.25	-1.47	1.0000 
	12	-2	-9	6498	580	6064	2	-1.62	1.0000 
	12	-2	9	5439	521	5067	1.88	1.59	1.0000 
	-2	-12	-9	4705	421	4458	-1.1	1.71	1.0000 
	-3	-12	9	3625	443	3845	-1.23	-0.22	1.0000 
	-3	-12	-9	3816	456	4083	-1.39	-0.33	1.0000 
	12	-3	9	4311	559	4617	1.65	-1.46	1.0000 
	12	-3	-9	4312	499	4636	1.73	1.48	1.0000 
	-4	-12	9	1381	298	1461	0.8	1.21	1.0000 
	12	-4	-9	1198	320	1290	-0.87	0.06	1.0000 
	12	-4	9	1566	383	1651	-0.64	-0.62	1.0000 
	-4	-12	-9	1195	243	1234	0.49	-1.62	1.0000 
	-5	-12	-9	83	94	45	1.6	0.37	1.0000 
	-5	-12	9	395	179	305	1.61	-0.02	1.0000 
	12	-5	-9	171	148	145	-1.71	-3.4	1.0000 
	12	-5	9	385	171	336	-1.41	2.19	1.0000 
	12	-6	-9	731	235	718	-0.18	-0.19	1.0000 
	-6	-12	-9	1039	233	1026	0.13	0.01	1.0000 
	12	-6	9	1462	373	1442	-0.25	0.57	1.0000 
	-6	-12	9	958	255	935	0.21	-0.39	1.0000 
	-7	-12	-9	1954	311	1873	-0.64	0.14	1.0000 
	-8	-12	-9	1376	271	1397	-0.16	-0.18	1.0000 
	6	-13	-9	628	162	541	1.39	-0.9	1.0000 
	5	-13	-9	327	151	341	-0.25	0.46	1.0000 
	13	4	-9	1061	286	956	1.28	-1.07	1.0000 
	4	-13	-9	1091	234	954	-1.44	0.07	1.0000 
	13	4	9	554	140	480	1.12	0.24	1.0000 
	13	3	9	1784	362	1864	0.74	1.03	1.0000 
	3	-13	-9	2044	362	2091	-0.28	0.48	1.0000 
	13	3	-9	2225	420	2288	0.58	-1.37	1.0000 
	13	2	-9	2341	434	2444	-0.53	-1.3	1.0000 
	2	-13	-9	2246	380	2341	0.78	1.09	1.0000 
	13	2	9	2253	388	2300	-0.19	1.06	1.0000 
	13	1	9	875	230	768	-1.28	-0.15	1.0000 
	1	-13	9	903	175	798	1.35	-0.69	1.0000 
	13	1	-9	429	199	348	-1.45	0.35	1.0000 
	1	-13	-9	452	182	365	1.42	-0.17	1.0000 
	-1	-13	9	793	197	679	-1.38	0.28	1.0000 
	13	-1	-9	914	262	800	1.37	0.3	1.0000 
	13	-1	9	801	229	686	1.44	-0.1	1.0000 
	-1	-13	-9	731	205	631	-1.42	0.74	1.0000 
	-2	-13	-9	2710	404	2803	-0.43	-1.25	1.0000 
	13	-2	9	1958	403	2049	0.81	-1.2	1.0000 
	-2	-13	9	2151	361	2220	-0.32	1.34	1.0000 
	13	-2	-9	2954	474	3061	0.78	1.22	1.0000 
	-3	-13	9	2571	394	2663	0.72	1.13	1.0000 
	13	-3	-9	1490	355	1528	-0.33	0.05	1.0000 
	-3	-13	-9	2362	367	2446	0.72	-1.49	1.0000 
	13	-3	9	1784	384	1831	-0.34	-0.27	1.0000 
	13	-4	9	1386	338	1215	-1.58	-0.11	1.0000 
	-4	-13	9	705	194	606	1.35	0.41	1.0000 
	-4	-13	-9	577	165	490	1.37	-0.82	1.0000 
	13	-4	-9	700	231	602	-1.39	-0.66	1.0000 
	-5	-13	-9	174	125	175	-0.02	-0.56	1.0000 
	-5	-13	9	0	103	-29	-0.02	0.29	1.0000 
	13	-5	-9	160	133	169	-0.22	0.26	1.0000 
	13	-6	-9	444	197	368	1.39	-0.6	1.0000 
	14	3	9	1229	267	1109	1.22	0.3	1.0000 
	14	2	9	1014	225	1048	0.48	1.82	1.0000 
	14	1	9	170	134	209	-0.95	0.15	1.0000 
	-1	-14	9	611	192	679	-0.92	-0.12	1.0000 
	14	-1	9	200	126	214	0.43	-0.92	1.0000 
	-2	-14	9	1197	274	1234	0.47	1.63	1.0000 
	0	0	-10	10347	514	10709	1.36	-1.38	1.0000 
	-1	0	-10	13686	607	13371	0.88	0.23	1.0000 
	0	-1	-10	12602	608	12279	0.87	0.98	1.0000 
	0	1	-10	13602	593	13354	0.75	-0.32	1.0000 
	1	0	-10	14279	603	13917	0.97	0.52	1.0000 
	-1	-1	-10	14480	649	13693	-2.16	-0.82	1.0000 
	1	-1	-10	14987	641	14208	-2.3	1.63	1.0000 
	1	1	-10	14486	608	13757	-1.99	-0.87	1.0000 
	-1	1	-10	15418	622	14596	-2.33	1.07	1.0000 
	2	1	-10	1647	180	2068	-3.31	0.49	1.0000 
	2	1	-10	1600	201	2015	-3.31	0.49	1.0000 
	1	-2	-10	1686	145	1993	-2.44	0.51	1.0000 
	-2	-1	-10	1545	204	1953	-3.27	-0.02	1.0000 
	1	-2	10	1524	140	1798	-2.33	-1.13	1.0000 
	-1	2	-10	1448	168	1716	-2.33	1.13	1.0000 
	1	-2	-10	1535	205	1829	-2.44	0.51	1.0000 
	0	2	-10	247	77	207	-2.09	1.24	1.0000 
	0	-2	10	26	58	8	-2.09	-1.24	1.0000 
	2	0	-10	191	75	149	-1.79	0.75	1.0000 
	-2	0	-10	83	78	48	-2.18	0.79	1.0000 
	2	0	-10	78	66	50	-1.79	0.75	1.0000 
	0	-2	-10	118	83	74	-2.08	0.46	1.0000 
	2	-1	-10	1402	158	1654	-2.2	0.43	1.0000 
	-1	-2	-10	1942	229	2417	-3.39	-0.26	1.0000 
	2	-1	-10	1659	201	1933	-2.2	0.43	1.0000 
	-1	-2	10	1285	161	1637	-3.14	-0.75	1.0000 
	-2	1	-10	1560	185	1838	-2.33	1.06	1.0000 
	1	2	-10	1506	164	1885	-3.14	0.75	1.0000 
	2	-2	-10	30	65	182	-3.3	4.34	1.0000 
	2	2	-10	214	127	462	-3.99	2.25	1.0000 
	2	2	-10	64	73	220	-3.99	2.25	1.0000 
	-2	-2	10	4	82	77	-3.99	-2.25	1.0000 
	-2	-2	-10	76	111	231	-3.78	2.09	1.0000 
	2	-2	-10	19	98	152	-3.3	4.34	1.0000 
	-2	2	-10	86	97	285	-3.33	3.91	1.0000 
	2	-3	-10	609	96	771	0.49	4.63	1.0000 
	-3	-2	10	536	146	652	1.41	-1.32	1.0000 
	-3	-2	-10	504	154	656	1.78	1.99	1.0000 
	2	-3	10	542	89	674	0.43	-4.3	1.0000 
	3	2	-10	578	111	698	1.41	1.32	1.0000 
	2	-3	-10	831	177	1025	0.49	4.63	1.0000 
	3	2	-10	465	146	573	1.41	1.32	1.0000 
	1	-3	-10	2501	144	2405	0.58	1.59	1.0000 
	1	-3	-10	2504	243	2408	0.58	1.59	1.0000 
	3	1	-10	2471	200	2372	0.62	0.9	1.0000 
	1	-3	10	2564	170	2441	0.76	-1.42	1.0000 
	-3	-1	-10	2535	233	2413	0.78	0.6	1.0000 
	-1	3	-10	2259	175	2143	0.76	1.42	1.0000 
	3	1	-10	2317	215	2221	0.62	0.9	1.0000 
	-3	0	-10	9015	418	7153	-6.98	0.92	1.0000 
	0	-3	10	9050	356	7254	-6.72	-1.16	1.0000 
	3	0	-10	9032	413	7250	-6.69	1.32	1.0000 
	3	0	-10	9381	417	7563	-6.69	1.32	1.0000 
	0	-3	-10	9637	450	7741	-6.88	1.24	1.0000 
	0	3	-10	9223	349	7409	-6.72	1.16	1.0000 
	3	-1	-10	2426	197	2284	0.91	1.23	1.0000 
	-1	-3	-10	2912	260	2788	0.72	0.89	1.0000 
	1	3	-10	2371	166	2261	0.71	0.79	1.0000 
	-3	1	-10	2180	213	2102	0.49	1.64	1.0000 
	-1	-3	10	2209	189	2103	0.71	-0.79	1.0000 
	3	-1	-10	2411	223	2269	0.91	1.23	1.0000 
	3	-2	-10	666	122	844	0.71	4.46	1.0000 
	-2	-3	-10	573	156	714	1.65	1.47	1.0000 
	-2	-3	10	355	133	467	1.56	-1.82	1.0000 
	2	3	-10	610	94	755	1.56	1.82	1.0000 
	3	-2	-10	483	146	630	0.71	4.46	1.0000 
	2	3	10	584	77	726	1.65	-1.47	1.0000 
	3	-3	-10	790	139	431	-5.08	2.27	1.0000 
	3	3	10	728	81	454	-3.85	-1.04	1.0000 
	-3	-3	-10	698	136	430	-3.85	1.04	1.0000 
	3	3	-10	770	87	481	-4	1.75	1.0000 
	3	-3	-10	819	97	453	-5.08	2.27	1.0000 
	-3	-3	10	754	135	468	-4	-1.75	1.0000 
	3	3	-10	995	167	663	-4	1.75	1.0000 
	3	-3	10	846	67	475	-5.13	-2.77	1.0000 
	-4	-3	-10	1005	124	883	1.31	0.2	1.0000 
	4	3	-10	814	174	703	1.31	0.43	1.0000 
	3	-4	-10	726	101	603	1.67	-0.55	1.0000 
	3	-4	-10	635	155	520	1.67	-0.55	1.0000 
	3	-4	10	914	94	767	1.85	1.01	1.0000 
	-4	-3	-10	793	164	685	1.31	0.2	1.0000 
	4	3	10	766	109	660	1.31	-0.2	1.0000 
	-4	-3	10	638	156	540	1.31	-0.43	1.0000 
	4	3	-10	806	113	696	1.31	0.43	1.0000 
	2	-4	10	5904	245	4571	6.25	1.22	1.0000 
	-4	-2	-10	5983	348	4618	6.34	-1.04	1.0000 
	-4	-2	-10	6256	249	4859	6.34	-1.04	1.0000 
	4	2	-10	6112	365	4729	6.34	-0.91	1.0000 
	-4	-2	10	6263	329	4862	6.34	0.91	1.0000 
	4	2	10	6160	299	4774	6.34	1.04	1.0000 
	2	-4	-10	6391	368	5030	6.12	-1.32	1.0000 
	4	2	-10	5956	297	4592	6.34	-0.91	1.0000 
	2	-4	-10	6593	253	5210	6.12	-1.32	1.0000 
	-4	-1	-10	25815	1107	25858	0.13	-0.84	1.0000 
	1	-4	-10	27405	1124	27140	-0.6	1.01	1.0000 
	1	-4	10	26508	948	26416	-0.25	-1.05	1.0000 
	4	1	-10	25137	1069	25242	0.27	-1.02	1.0000 
	-4	-1	-10	26075	891	26118	0.13	-0.84	1.0000 
	4	1	-10	25785	1136	25892	0.27	-1.02	1.0000 
	1	-4	-10	28559	962	28288	-0.6	1.01	1.0000 
	4	0	-10	49415	2110	54328	-7.26	1.25	1.0000 
	0	-4	10	48639	1843	53521	-7.28	-1.36	1.0000 
	0	-4	-10	52628	2104	57817	-7.43	1.18	1.0000 
	4	0	-10	49823	2062	54755	-7.26	1.25	1.0000 
	0	4	-10	50069	1935	55021	-7.28	1.36	1.0000 
	-4	0	-10	50067	1732	55157	-7.47	1.39	1.0000 
	-1	-4	-10	26457	1129	26586	0.31	-0.91	1.0000 
	4	-1	-10	25353	1102	25230	-0.32	0.95	1.0000 
	-1	-4	10	26947	993	26983	0.12	0.81	1.0000 
	1	4	-10	26483	962	26519	0.12	-0.81	1.0000 
	4	-1	-10	26445	1104	26319	-0.32	0.95	1.0000 
	4	-2	-10	6565	371	5183	6.17	-1.73	1.0000 
	2	4	10	6509	216	5076	6.36	0.86	1.0000 
	-2	-4	10	6681	334	5256	6.24	1.01	1.0000 
	4	-2	-10	6535	333	5156	6.17	-1.73	1.0000 
	2	4	-10	6084	247	4728	6.24	-1.01	1.0000 
	-2	-4	-10	6863	379	5389	6.36	-0.86	1.0000 
	3	4	-10	675	168	582	1.25	0	1.0000 
	3	4	-10	852	89	747	1.25	0	1.0000 
	4	-3	-10	691	163	583	1.58	-0.97	1.0000 
	3	4	10	935	85	817	1.29	-0.55	1.0000 
	-3	-4	10	790	158	689	1.25	0	1.0000 
	4	-3	-10	859	135	738	1.58	-0.97	1.0000 
	-3	-4	-10	598	152	504	1.29	0.55	1.0000 
	-3	-4	-10	761	130	655	1.29	0.55	1.0000 
	4	4	-10	6720	464	6211	-2.31	1.68	1.0000 
	4	4	10	6948	340	6463	-2.28	-2.4	1.0000 
	-4	-4	-10	6812	351	6332	-2.28	2.4	1.0000 
	-4	-4	10	6742	401	6233	-2.31	-1.68	1.0000 
	4	-4	-10	7527	380	6790	-3.23	2.44	1.0000 
	-4	-4	-10	7134	442	6643	-2.28	2.4	1.0000 
	4	4	-10	6732	326	6223	-2.31	1.68	1.0000 
	5	4	10	13694	635	14215	-1.64	-2.28	1.0000 
	-5	-4	-10	14210	601	14741	-1.64	2.28	1.0000 
	4	-5	-10	12458	625	12965	-1.63	1.6	1.0000 
	-5	-4	10	13505	676	13982	-1.5	-1.86	1.0000 
	5	4	-10	11214	724	11649	-1.5	1.86	1.0000 
	4	-5	-10	12043	711	12541	-1.63	1.6	1.0000 
	-5	-4	-10	12080	696	12569	-1.64	2.28	1.0000 
	3	-5	-10	1449	166	1978	4.29	-0.05	1.0000 
	3	-5	-10	1763	281	2342	4.29	-0.05	1.0000 
	-5	-3	-10	1662	177	2120	3.53	0	1.0000 
	3	-5	10	1609	160	2177	4.41	0.31	1.0000 
	-5	-3	-10	1592	258	2041	3.53	0	1.0000 
	5	3	-10	1488	270	1958	3.89	-1.59	1.0000 
	5	3	10	1497	193	1933	3.53	0	1.0000 
	-5	-3	10	1561	252	2042	3.89	1.59	1.0000 
	-5	-2	10	4989	352	5193	1.01	1.1	1.0000 
	5	2	-10	4372	377	4563	1.01	-1.1	1.0000 
	2	-5	-10	4989	389	5164	0.89	-1.73	1.0000 
	-5	-2	-10	5047	253	5206	0.8	-1.26	1.0000 
	2	-5	-10	4790	250	4961	0.89	-1.73	1.0000 
	2	-5	10	4846	275	5043	1.01	2.05	1.0000 
	5	2	10	4343	320	4490	0.8	1.26	1.0000 
	1	-5	10	23944	887	24534	-1.26	0.1	1.0000 
	5	1	-10	22390	1062	22898	-1.04	-1.14	1.0000 
	1	-5	-10	22687	1043	23417	-1.61	-0.03	1.0000 
	-5	-1	-10	22939	799	23580	-1.37	-0.52	1.0000 
	5	0	-10	43330	1808	44784	2.38	-1.02	1.0000 
	0	-5	10	45644	1571	47251	2.51	0.21	1.0000 
	0	-5	-10	42053	1768	43339	2.14	-0.96	1.0000 
	5	-1	-10	22313	1054	23000	-1.53	0.02	1.0000 
	-1	-5	-10	25119	1083	25701	-1.16	-0.78	1.0000 
	-1	-5	10	23024	933	23570	-1.13	0.85	1.0000 
	-2	-5	10	4714	333	4869	0.82	1.43	1.0000 
	-2	-5	-10	4874	379	5050	0.87	-0.68	1.0000 
	5	-2	-10	5032	359	5180	0.77	-1.98	1.0000 
	5	-3	-10	1534	272	2064	4.18	0.2	1.0000 
	-3	-5	-10	1108	229	1486	3.56	-0.52	1.0000 
	-3	-5	10	1851	258	2371	3.85	0.81	1.0000 
	-3	-5	-10	1747	228	2215	3.56	-0.52	1.0000 
	5	-3	-10	1478	228	1999	4.18	0.2	1.0000 
	-4	-5	-10	11618	596	12069	-1.54	2.09	1.0000 
	-4	-5	10	13304	659	13752	-1.44	-2.16	1.0000 
	4	5	-10	13405	763	13855	-1.44	2.16	1.0000 
	5	-4	-10	13299	663	13802	-1.58	1.74	1.0000 
	-4	-5	-10	12006	698	12465	-1.54	2.09	1.0000 
	5	-5	-10	19891	852	18545	-3.29	0.37	1.0000 
	-5	-5	10	20210	846	18628	-4.16	-3.21	1.0000 
	5	-5	-10	19675	927	18336	-3.29	0.37	1.0000 
	5	5	-10	19782	965	18217	-4.16	3.21	1.0000 
	-5	-5	-10	18106	766	16788	-3.6	2.46	1.0000 
	-5	-5	-10	20861	913	19446	-3.6	2.46	1.0000 
	5	-6	-10	12264	668	12897	-2	1.38	1.0000 
	5	-6	-10	11634	746	12251	-2	1.38	1.0000 
	6	5	-10	12783	809	13576	-2.23	-0.84	1.0000 
	-6	-5	10	14231	727	15067	-2.23	0.84	1.0000 
	-6	-5	-10	13259	626	13862	-1.72	-0.14	1.0000 
	-6	-4	10	11657	628	11625	-0.17	-0.82	1.0000 
	6	4	-10	10793	704	10762	-0.17	0.82	1.0000 
	-6	-4	-10	12166	538	12181	-0.01	0.69	1.0000 
	4	-6	-10	10885	664	10930	0.17	-0.29	1.0000 
	6	4	10	13156	626	13171	-0.01	-0.69	1.0000 
	-6	-3	10	2970	293	2530	2.84	0.54	1.0000 
	6	3	10	2901	243	2485	2.67	-0.08	1.0000 
	3	-6	-10	3217	310	2761	2.91	-1.42	1.0000 
	-6	-3	-10	3192	196	2755	2.67	0.08	1.0000 
	3	-6	10	2698	182	2266	2.99	1.12	1.0000 
	6	3	-10	2815	315	2387	2.84	-0.54	1.0000 
	2	-6	-10	481	172	589	-1.6	0.16	1.0000 
	2	-6	10	584	119	673	-1.25	-0.34	1.0000 
	-6	-2	-10	465	90	580	-1.56	-0.82	1.0000 
	6	2	10	484	146	601	-1.56	0.82	1.0000 
	6	2	-10	324	151	407	-1.31	-0.91	1.0000 
	1	-6	-10	5796	427	5623	-0.79	0.13	1.0000 
	6	1	10	6275	414	6115	-0.76	-0.64	1.0000 
	6	1	-10	5843	440	5706	-0.66	0.48	1.0000 
	1	-6	10	7431	367	7246	-0.72	0.06	1.0000 
	0	-6	10	19716	724	17896	4.59	1.49	1.0000 
	6	0	-10	17254	838	15590	4.48	-1.36	1.0000 
	0	-6	-10	18853	833	17122	4.4	-0.82	1.0000 
	-1	-6	10	7054	401	6903	-0.65	-0.34	1.0000 
	6	-1	-10	6186	440	5999	-0.81	0.08	1.0000 
	-1	-6	-10	7245	470	7081	-0.74	0.78	1.0000 
	-2	-6	-10	498	171	607	-1.4	-0.91	1.0000 
	-2	-6	10	645	171	772	-1.51	0.55	1.0000 
	6	-2	-10	348	148	437	-1.55	0.27	1.0000 
	6	-3	-10	3051	281	2582	3.06	-1.26	1.0000 
	-3	-6	-10	3011	268	2596	2.64	-0.27	1.0000 
	-3	-6	-10	2656	278	2267	2.64	-0.27	1.0000 
	-3	-6	10	3104	284	2654	2.81	0	1.0000 
	-4	-6	-10	13135	711	13074	-0.24	0.69	1.0000 
	-4	-6	10	12532	649	12506	-0.13	-0.66	1.0000 
	-4	-6	-10	12053	612	11995	-0.24	0.69	1.0000 
	6	-4	-10	12859	675	12952	0.27	0.08	1.0000 
	-5	-6	10	13268	705	14028	-2.14	0.38	1.0000 
	6	-5	-10	12254	697	12853	-1.92	1.6	1.0000 
	-5	-6	-10	12822	652	13447	-1.78	-0.47	1.0000 
	5	6	-10	11525	774	12234	-2.14	-0.38	1.0000 
	-5	-6	-10	13032	733	13662	-1.78	-0.47	1.0000 
	6	-5	-10	12433	762	13036	-1.92	1.6	1.0000 
	-6	-6	10	7950	502	7701	-1	-0.52	1.0000 
	-6	-6	-10	7137	507	6979	-0.77	1.27	1.0000 
	6	6	-10	7628	572	7384	-1	0.52	1.0000 
	6	-6	-10	6878	521	6701	-0.82	0.94	1.0000 
	6	-6	-10	6970	457	6792	-0.82	0.94	1.0000 
	-6	-6	-10	6921	427	6766	-0.77	1.27	1.0000 
	-7	-6	-10	635	141	555	1.03	0.63	1.0000 
	6	-7	-10	309	173	263	0.95	-0.18	1.0000 
	-7	-6	10	446	175	390	0.84	-0.57	1.0000 
	7	6	-10	603	193	538	0.84	0.57	1.0000 
	7	5	-10	880	254	996	1.45	-2.59	1.0000 
	5	-7	-10	586	209	657	0.93	0.19	1.0000 
	-7	-5	10	675	209	775	1.45	2.59	1.0000 
	-7	-5	-10	749	166	873	1.6	-1.04	1.0000 
	4	-7	-10	858	221	920	-0.57	-0.98	1.0000 
	-7	-4	10	839	214	945	-1.27	-0.93	1.0000 
	7	4	10	1010	195	1118	-1.2	-1.09	1.0000 
	-7	-4	-10	1022	161	1131	-1.2	1.09	1.0000 
	7	4	-10	991	270	1107	-1.27	0.93	1.0000 
	3	-7	-10	151	123	161	0.07	-1.55	1.0000 
	-7	-3	10	128	130	205	-0.17	-2.54	1.0000 
	7	3	-10	65	125	121	-0.17	2.54	1.0000 
	3	-7	10	46	82	56	0.05	1.96	1.0000 
	7	3	10	11	75	23	-0.18	-1.57	1.0000 
	7	2	-10	1102	251	1288	1.78	0.35	1.0000 
	2	-7	10	965	166	1109	1.5	0.08	1.0000 
	2	-7	-10	923	227	1054	1.38	0.19	1.0000 
	7	2	10	1127	210	1306	1.68	-0.61	1.0000 
	7	1	10	1684	240	1576	0.91	0.14	1.0000 
	1	-7	10	1744	200	1627	0.92	-0.46	1.0000 
	1	-7	-10	1884	252	1772	0.88	-0.05	1.0000 
	7	1	-10	1823	276	1720	0.79	0.29	1.0000 
	0	-7	-10	6259	462	6190	-0.25	-0.92	1.0000 
	7	0	10	6992	483	6925	-0.22	1.05	1.0000 
	7	0	-10	6941	498	6875	-0.23	-0.84	1.0000 
	0	-7	10	7174	411	7102	-0.25	0.75	1.0000 
	-1	-7	-10	1907	260	1804	0.81	-0.02	1.0000 
	7	-1	-10	1810	267	1683	1.01	0.13	1.0000 
	-1	-7	10	1985	235	1891	0.7	-0.2	1.0000 
	-2	-7	-10	1106	226	1298	1.83	0.44	1.0000 
	7	-2	-10	1369	250	1543	1.52	0.14	1.0000 
	-2	-7	10	1141	223	1322	1.7	-0.47	1.0000 
	-2	-7	-10	1070	216	1259	1.83	0.44	1.0000 
	7	-3	-10	37	92	51	0.28	-2.44	1.0000 
	-3	-7	-10	122	111	175	-0.08	2.01	1.0000 
	-3	-7	10	96	133	142	-0.24	-1.88	1.0000 
	-3	-7	-10	127	134	181	-0.08	2.01	1.0000 
	-4	-7	-10	736	203	827	-1.16	0.73	1.0000 
	-4	-7	-10	602	170	684	-1.16	0.73	1.0000 
	-4	-7	10	894	222	1020	-1.44	-0.99	1.0000 
	7	-4	-10	1018	212	1079	-0.55	-0.68	1.0000 
	7	-5	-10	584	180	665	0.95	0.77	1.0000 
	-5	-7	-10	521	200	629	1.72	-1.8	1.0000 
	-5	-7	-10	712	178	839	1.72	-1.8	1.0000 
	-5	-7	10	499	199	590	1.52	1.88	1.0000 
	7	-6	-10	780	189	697	1.03	-0.04	1.0000 
	-6	-7	-10	670	202	591	0.97	0.78	1.0000 
	-6	-7	-10	629	160	552	0.97	0.78	1.0000 
	-6	-7	10	511	186	450	0.87	-0.47	1.0000 
	7	-6	-10	759	227	677	1.03	-0.04	1.0000 
	6	7	-10	589	205	523	0.87	0.47	1.0000 
	7	7	-10	14	114	-20	-1.18	2.16	1.0000 
	-7	-7	10	34	141	87	-1.18	-2.16	1.0000 
	-7	-7	-10	4	96	28	-1.1	2.24	1.0000 
	7	-7	-10	19	120	43	-0.61	1.48	1.0000 
	7	-8	-10	348	180	362	0.01	1.65	1.0000 
	8	7	-10	422	202	437	0.22	0.39	1.0000 
	-8	-7	-10	236	100	261	0.5	0.38	1.0000 
	-8	-7	10	182	133	192	0.22	-0.39	1.0000 
	-8	-6	10	648	208	642	0.06	-0.14	1.0000 
	8	6	-10	782	235	776	0.06	0.14	1.0000 
	6	-8	-10	889	241	876	0.12	0.44	1.0000 
	8	5	-10	1838	343	2007	1.23	0.8	1.0000 
	-8	-5	10	1702	304	1865	1.23	-0.8	1.0000 
	5	-8	-10	1932	318	2125	1.48	-1.21	1.0000 
	8	4	-10	204	154	237	-0.79	0.33	1.0000 
	4	-8	-10	400	161	415	-0.2	-0.39	1.0000 
	8	4	10	209	119	238	-0.72	-0.69	1.0000 
	-8	-4	10	395	171	441	-0.79	-0.33	1.0000 
	8	3	-10	255	158	227	-0.58	-0.25	1.0000 
	3	-8	-10	133	124	94	-1.2	-0.44	1.0000 
	8	3	10	285	108	239	-0.93	0.37	1.0000 
	-8	-3	10	131	117	111	-0.58	0.25	1.0000 
	3	-8	10	229	93	181	-1.13	0.01	1.0000 
	8	2	-10	37	129	64	1.24	0.26	1.0000 
	2	-8	-10	72	115	107	1.1	-2.47	1.0000 
	8	2	10	185	122	234	1.05	-0.69	1.0000 
	2	-8	10	11	77	-42	0.84	2.02	1.0000 
	1	-8	-10	2555	298	2389	1.12	-0.19	1.0000 
	8	1	10	2491	304	2367	0.82	-0.4	1.0000 
	1	-8	10	2060	230	1918	1.06	0.03	1.0000 
	8	1	-10	2488	332	2372	0.76	0.71	1.0000 
	0	-8	-10	680	185	702	0.13	1.2	1.0000 
	0	-8	10	476	148	501	0.23	-1.23	1.0000 
	8	0	10	644	188	663	0.11	-1.17	1.0000 
	8	0	-10	679	209	704	0.17	1.22	1.0000 
	-1	-8	-10	2335	289	2229	0.72	0.72	1.0000 
	8	-1	10	2364	313	2204	1.12	0.11	1.0000 
	-1	-8	-10	2674	312	2560	0.72	0.72	1.0000 
	8	-1	-10	2509	320	2343	1.13	-0.12	1.0000 
	-1	-8	10	1994	257	1906	0.65	-0.51	1.0000 
	-2	-8	-10	193	153	249	1.21	0.44	1.0000 
	-2	-8	10	288	155	349	1.05	-0.66	1.0000 
	-2	-8	-10	135	135	182	1.21	0.44	1.0000 
	8	-2	-10	164	150	218	1.13	-2.02	1.0000 
	-3	-8	-10	306	146	277	-0.57	-0.73	1.0000 
	-3	-8	10	560	176	509	-0.74	-0.02	1.0000 
	-3	-8	-10	262	139	235	-0.57	-0.73	1.0000 
	8	-3	-10	328	148	270	-1.1	-0.55	1.0000 
	-4	-8	10	219	156	247	-0.66	-0.35	1.0000 
	-4	-8	-10	580	195	626	-0.66	0.42	1.0000 
	-4	-8	-10	239	134	268	-0.66	0.42	1.0000 
	8	-4	-10	168	137	180	-0.24	-0.49	1.0000 
	8	-5	-10	1908	305	2117	1.6	-1.11	1.0000 
	-5	-8	-10	1570	283	1767	1.52	1.21	1.0000 
	-5	-8	10	1470	288	1622	1.25	-0.65	1.0000 
	-5	-8	-10	1945	289	2164	1.52	1.21	1.0000 
	-6	-8	-10	715	210	702	0.16	0.06	1.0000 
	-6	-8	-10	591	147	579	0.16	0.06	1.0000 
	-6	-8	10	441	203	453	-0.19	0.01	1.0000 
	8	-6	-10	767	211	753	0.13	0.74	1.0000 
	7	8	-10	233	145	242	0.21	-0.09	1.0000 
	8	-7	-10	146	165	146	-0.25	2.11	1.0000 
	-7	-8	-10	433	147	445	0.14	0.59	1.0000 
	-7	-8	10	317	161	328	0.21	0.09	1.0000 
	-8	-8	10	84	134	158	2.17	-0.65	1.0000 
	8	8	-10	148	143	242	2.17	0.65	1.0000 
	-8	-8	-10	46	84	108	2.24	0.97	1.0000 
	8	-8	-10	6	141	31	1.15	2.66	1.0000 
	-9	-8	10	172	118	183	-0.25	0.13	1.0000 
	9	8	-10	0	70	-57	-0.25	-0.13	1.0000 
	8	-9	-10	179	132	185	-0.21	0.51	1.0000 
	9	7	-10	1466	335	1437	0.39	-1.32	1.0000 
	-9	-7	10	1106	250	1080	0.39	1.32	1.0000 
	7	-9	-10	1621	315	1577	0.36	0.21	1.0000 
	9	6	-10	5969	546	5844	-0.52	-0.33	1.0000 
	6	-9	-10	6232	514	6117	-0.62	1.34	1.0000 
	-9	-6	10	5905	478	5781	-0.52	0.33	1.0000 
	5	-9	-10	9935	677	9875	0.16	0.61	1.0000 
	-9	-5	10	11582	672	11548	0.11	0.01	1.0000 
	9	5	-10	9573	732	9542	0.11	-0.01	1.0000 
	9	4	10	5123	422	5196	0.29	-0.53	1.0000 
	4	-9	-10	5593	457	5522	-0.49	1.6	1.0000 
	9	4	-10	4392	466	4399	0.01	0.23	1.0000 
	-9	-4	10	3903	409	3909	0.01	-0.23	1.0000 
	9	3	-10	1317	294	1313	0.02	0.46	1.0000 
	9	3	10	1578	273	1583	-0.06	-0.51	1.0000 
	3	-9	-10	1712	280	1749	-0.31	0.24	1.0000 
	2	-9	-10	373	162	368	1.85	-2.91	1.0000 
	9	2	10	194	117	142	1.29	-0.41	1.0000 
	2	-9	10	41	114	23	1.63	2.62	1.0000 
	9	2	-10	156	145	112	1.26	0.13	1.0000 
	9	1	10	5598	474	5736	0.59	-0.33	1.0000 
	1	-9	10	5877	398	5911	0.18	0.37	1.0000 
	9	1	-10	5918	520	6040	0.49	0.47	1.0000 
	1	-9	-10	6425	472	6538	0.51	-0.44	1.0000 
	0	-9	-10	5556	437	5626	-0.48	1.71	1.0000 
	0	-9	-10	4961	424	5027	-0.48	1.71	1.0000 
	0	-9	10	4973	376	5071	-0.59	-1.2	1.0000 
	9	0	10	4934	452	5031	-0.61	-1.48	1.0000 
	9	0	-10	5422	486	5508	-0.55	1.63	1.0000 
	-1	-9	10	4770	394	4886	0.53	-0.26	1.0000 
	-1	-9	-10	6094	468	6199	0.4	0.53	1.0000 
	9	-1	10	6093	504	6176	0.38	0.27	1.0000 
	-1	-9	-10	6146	458	6251	0.4	0.53	1.0000 
	9	-1	-10	5643	492	5700	0.29	-0.44	1.0000 
	-2	-9	-10	532	174	454	1.2	0.06	1.0000 
	9	-2	-10	286	166	267	1.77	-2.51	1.0000 
	9	-2	10	186	154	177	1.75	2.89	1.0000 
	-2	-9	10	265	168	205	1.19	-0.69	1.0000 
	-2	-9	-10	266	134	212	1.2	0.06	1.0000 
	9	-3	-10	1223	267	1260	-0.38	0.7	1.0000 
	-3	-9	-10	1763	266	1768	-0.07	0.65	1.0000 
	-3	-9	-10	1285	246	1289	-0.07	0.65	1.0000 
	-3	-9	10	1355	258	1379	-0.23	-0.28	1.0000 
	9	-3	10	1096	279	1126	-0.3	0.03	1.0000 
	-4	-9	10	4749	419	4784	0.18	0.05	1.0000 
	-4	-9	-10	5481	444	5486	-0.04	0.61	1.0000 
	-4	-9	-10	4997	405	5001	-0.04	0.61	1.0000 
	9	-4	-10	4561	432	4510	-0.4	1.45	1.0000 
	-5	-9	-10	10774	620	10719	0.17	0.1	1.0000 
	9	-5	-10	9657	660	9564	0.29	0.39	1.0000 
	-5	-9	10	9110	611	9055	0.19	0.01	1.0000 
	9	-6	-10	5660	490	5512	-0.76	1.04	1.0000 
	-6	-9	10	5270	461	5153	-0.53	0.1	1.0000 
	-6	-9	-10	6082	445	5970	-0.45	-0.48	1.0000 
	-7	-9	-10	1338	245	1303	0.44	-1.19	1.0000 
	-7	-9	10	1807	313	1752	0.57	1.28	1.0000 
	-8	-9	10	222	135	238	-0.22	0.81	1.0000 
	8	9	-10	75	104	84	-0.22	-0.81	1.0000 
	-8	-9	-10	101	115	114	-0.44	0.23	1.0000 
	9	-8	-10	17	128	21	-0.46	0.85	1.0000 
	-9	-9	10	1291	255	1214	-1.14	-2.29	1.0000 
	9	-9	-10	1407	310	1290	-0.97	-0.87	1.0000 
	9	9	-10	737	237	676	-1.14	2.29	1.0000 
	9	-10	-10	2742	426	2870	-0.44	-2.38	1.0000 
	10	9	-10	2028	403	2145	-1.03	1.82	1.0000 
	-10	-9	10	2184	362	2306	-1.03	-1.82	1.0000 
	-10	-8	10	514	162	403	-1.78	-0.47	1.0000 
	10	8	-10	685	213	556	-1.78	0.47	1.0000 
	8	-10	-10	748	211	632	-1.43	-1.8	1.0000 
	-10	-7	10	1082	237	1064	-0.24	-0.37	1.0000 
	7	-10	-10	834	234	835	0.06	-0.46	1.0000 
	10	7	-10	578	197	565	-0.24	0.37	1.0000 
	6	-10	-10	5402	482	5239	0.57	2	1.0000 
	10	6	-10	4739	498	4525	0.97	0.83	1.0000 
	-10	-6	10	5644	460	5410	0.97	-0.83	1.0000 
	10	5	-10	8608	701	8747	0.65	-1.74	1.0000 
	5	-10	-10	8386	626	8643	0.52	3.28	1.0000 
	-10	-5	10	8576	590	8715	0.65	1.74	1.0000 
	10	4	10	4252	404	4485	-1.24	-0.57	1.0000 
	-10	-4	10	4368	392	4485	-0.51	0.67	1.0000 
	4	-10	-10	3809	403	3837	-0.17	0.17	1.0000 
	10	4	-10	4354	467	4471	-0.51	-0.67	1.0000 
	10	3	-10	776	224	693	-1.26	1.65	1.0000 
	10	3	10	1059	227	961	-1.29	-1.67	1.0000 
	3	-10	-10	1035	219	951	-0.82	-1.02	1.0000 
	10	2	10	763	228	787	0.33	0.4	1.0000 
	2	-10	10	958	199	938	-0.21	0.11	1.0000 
	10	2	-10	1079	287	1093	0.21	-0.72	1.0000 
	2	-10	-10	473	177	478	0.02	0.46	1.0000 
	1	-10	10	9797	551	9590	0.75	0.5	1.0000 
	10	1	-10	10387	715	10052	1.16	-0.51	1.0000 
	1	-10	-10	8767	589	8540	0.85	-0.38	1.0000 
	1	-10	-10	9153	605	8921	0.85	-0.38	1.0000 
	10	1	10	9265	647	8939	1.21	0.73	1.0000 
	10	0	-10	10813	761	11023	0.67	0.04	1.0000 
	10	0	10	11042	754	11321	0.91	0.24	1.0000 
	0	-10	10	10983	623	11177	0.69	0.75	1.0000 
	0	-10	-10	11173	688	11422	0.76	0.23	1.0000 
	0	-10	-10	10979	680	11226	0.76	0.23	1.0000 
	-1	-10	-10	9875	614	9585	1.03	-0.47	1.0000 
	10	-1	-10	9748	688	9515	0.85	-0.56	1.0000 
	-1	-10	10	9889	584	9579	1.16	1.1	1.0000 
	-2	-10	10	882	219	911	0.4	0.9	1.0000 
	-2	-10	-10	1006	230	1014	0.13	-0.44	1.0000 
	10	-2	10	550	215	551	0.02	0.04	1.0000 
	10	-2	-10	934	253	933	-0.07	0.46	1.0000 
	-3	-10	10	869	224	775	-1.35	-1.68	1.0000 
	-3	-10	-10	1351	250	1236	-1.34	1.66	1.0000 
	10	-3	10	689	226	624	-0.76	1.33	1.0000 
	10	-3	-10	713	220	623	-1.11	-0.57	1.0000 
	-4	-10	10	4562	430	4699	-0.79	-1.13	1.0000 
	10	-4	10	4711	508	4740	-0.16	-0.19	1.0000 
	10	-4	-10	4847	465	4853	-0.07	0.38	1.0000 
	-4	-10	-10	3798	378	3929	-0.62	-0.75	1.0000 
	-5	-10	-10	7613	555	7735	0.59	-1.32	1.0000 
	10	-5	-10	8566	647	8819	0.54	2.95	1.0000 
	-5	-10	10	8583	599	8701	0.58	1.76	1.0000 
	-6	-10	-10	4754	411	4517	1.04	1.22	1.0000 
	10	-6	-10	4959	468	4828	0.48	1.59	1.0000 
	-6	-10	10	5021	496	4778	1.23	0.54	1.0000 
	-7	-10	-10	1073	220	1065	-0.21	0.86	1.0000 
	-7	-10	10	510	218	517	0	-0.7	1.0000 
	-8	-10	10	303	129	225	-1.66	-0.63	1.0000 
	-8	-10	-10	456	136	347	-1.9	0.72	1.0000 
	10	-8	-10	882	234	743	-1.58	-1.45	1.0000 
	10	-9	-10	2112	397	2270	-0.76	-2.42	1.0000 
	-9	-10	10	2448	384	2556	-0.89	-1.74	1.0000 
	10	-10	-10	4358	478	4582	1.21	-0.74	1.0000 
	10	10	-10	4367	572	4463	0.49	-0.05	1.0000 
	9	-11	-10	1132	250	1145	0.04	0.57	1.0000 
	8	-11	-10	271	135	327	-1.05	-0.35	1.0000 
	11	8	-10	566	177	653	-1.22	1.19	1.0000 
	-11	-8	10	275	141	335	-1.22	-1.19	1.0000 
	-11	-7	10	787	210	921	-1.59	-0.8	1.0000 
	11	7	-10	999	299	1150	-1.59	0.8	1.0000 
	7	-11	-10	818	221	924	-1.14	-0.64	1.0000 
	11	6	-10	4634	521	4837	0.94	0.47	1.0000 
	-11	-6	10	4175	466	4368	0.94	-0.47	1.0000 
	6	-11	-10	3524	388	3699	0.95	0.26	1.0000 
	-11	-5	10	6962	516	7001	-0.2	-0.44	1.0000 
	11	5	-10	6021	585	6057	-0.2	0.44	1.0000 
	5	-11	-10	5553	494	5566	-0.17	1.26	1.0000 
	11	4	10	3238	348	3178	-0.45	-0.76	1.0000 
	11	4	-10	3717	476	3636	-0.47	0.19	1.0000 
	11	3	-10	280	178	263	0.36	-0.26	1.0000 
	11	3	10	563	169	539	0.35	0.08	1.0000 
	11	2	-10	399	218	511	-1.43	-1.71	1.0000 
	11	2	10	153	128	227	-1.56	1.55	1.0000 
	2	-11	-10	449	190	539	-1.45	1.2	1.0000 
	2	-11	10	677	187	793	-1.52	-1.58	1.0000 
	11	1	-10	4834	498	4744	-0.4	-0.31	1.0000 
	1	-11	-10	4403	455	4299	-0.47	-0.67	1.0000 
	1	-11	10	4802	391	4714	-0.37	0.68	1.0000 
	11	1	10	3975	426	3911	-0.3	0.39	1.0000 
	0	-11	-10	6497	490	6250	1.01	0.26	1.0000 
	0	-11	10	5974	435	5739	1.07	0.33	1.0000 
	11	0	-10	5313	521	5116	0.92	-0.08	1.0000 
	11	0	10	6492	539	6210	1.17	-0.13	1.0000 
	11	-1	10	4285	451	4181	-0.49	0.51	1.0000 
	-1	-11	-10	5179	437	5077	-0.44	-0.44	1.0000 
	-1	-11	10	4619	408	4566	-0.23	0.4	1.0000 
	11	-1	-10	4348	466	4264	-0.35	-0.8	1.0000 
	11	-2	10	507	229	609	-1.55	-1.29	1.0000 
	-2	-11	-10	309	164	419	-1.64	-1.65	1.0000 
	11	-2	-10	373	194	454	-1.45	1.42	1.0000 
	-2	-11	10	415	191	524	-1.38	1.61	1.0000 
	11	-3	-10	387	178	365	0.35	0.23	1.0000 
	11	-3	10	391	178	369	0.37	-0.07	1.0000 
	-3	-11	10	245	173	232	0.28	0.04	1.0000 
	-3	-11	-10	792	211	761	0.39	-0.18	1.0000 
	11	-4	-10	3387	445	3326	-0.3	-0.54	1.0000 
	-4	-11	10	3293	411	3241	-0.36	-0.5	1.0000 
	-4	-11	-10	3177	390	3117	-0.42	0.5	1.0000 
	11	-4	10	2883	453	2814	-0.35	0.81	1.0000 
	11	-5	10	5580	574	5593	-0.12	-0.69	1.0000 
	11	-5	-10	5009	501	5021	-0.19	1.48	1.0000 
	-5	-11	10	5178	472	5203	-0.19	-0.79	1.0000 
	-5	-11	-10	5610	460	5662	-0.31	0.86	1.0000 
	11	-6	-10	3733	425	3918	0.96	0.42	1.0000 
	-6	-11	-10	2923	388	3098	0.99	0.7	1.0000 
	-6	-11	10	3795	466	3996	0.99	-0.82	1.0000 
	11	-6	10	4026	580	4206	0.96	0.18	1.0000 
	-7	-11	-10	892	231	1029	-1.54	1.07	1.0000 
	-7	-11	10	1274	308	1415	-1.33	-0.78	1.0000 
	11	-7	10	948	357	1048	-1.03	0.3	1.0000 
	-8	-11	10	271	167	330	-1.19	-1.3	1.0000 
	-8	-11	-10	415	145	491	-1.23	1.18	1.0000 
	-12	-7	10	131	102	81	-1.59	0.58	1.0000 
	12	6	-10	562	251	560	0.19	-0.93	1.0000 
	-12	-6	10	780	196	777	0.19	0.93	1.0000 
	12	5	-10	1110	303	1116	-0.09	1.07	1.0000 
	12	4	10	1209	233	1177	0.28	-0.32	1.0000 
	12	4	-10	1197	316	1237	-0.44	0.77	1.0000 
	12	3	-10	47	111	30	-0.86	-0.97	1.0000 
	12	3	10	420	132	378	-0.69	0.7	1.0000 
	3	-12	-10	783	223	712	-0.86	-0.29	1.0000 
	2	-12	-10	103	134	178	-2.17	-0.07	1.0000 
	12	2	10	175	103	279	-2.32	-0.07	1.0000 
	12	2	-10	12	113	50	-2.34	0.47	1.0000 
	12	1	-10	396	199	429	-0.59	0.25	1.0000 
	1	-12	10	488	161	521	-0.57	-0.46	1.0000 
	12	1	10	432	148	461	-0.55	-0.66	1.0000 
	1	-12	-10	465	177	503	-0.65	0.44	1.0000 
	12	0	-10	324	181	392	1.26	-0.3	1.0000 
	12	0	10	244	165	301	1.17	0.05	1.0000 
	0	-12	10	385	174	467	1.24	-0.58	1.0000 
	0	-12	-10	200	152	247	1.18	-0.69	1.0000 
	-1	-12	10	372	143	390	-0.42	-0.72	1.0000 
	12	-1	-10	324	170	347	-0.54	0.8	1.0000 
	12	-1	10	108	113	126	-0.61	-0.16	1.0000 
	-1	-12	-10	331	159	362	-0.61	0.32	1.0000 
	12	-2	-10	259	185	366	-2.04	-0.06	1.0000 
	-2	-12	-10	24	108	75	-2.5	0.37	1.0000 
	12	-2	10	0	99	9	-2.27	0.02	1.0000 
	-2	-12	10	36	135	89	-2.28	-0.16	1.0000 
	-3	-12	10	309	171	271	-0.72	0.76	1.0000 
	12	-3	10	403	156	350	-0.9	0.28	1.0000 
	-3	-12	-10	328	138	281	-0.89	-0.88	1.0000 
	12	-3	-10	249	170	213	-0.77	-0.28	1.0000 
	12	-4	-10	1032	280	1085	-0.59	0.64	1.0000 
	-4	-12	10	835	246	857	-0.22	0.22	1.0000 
	-4	-12	-10	921	221	957	-0.47	0.99	1.0000 
	12	-4	10	712	247	746	-0.47	-0.5	1.0000 
	12	-5	10	1023	300	1044	0.3	1.04	1.0000 
	-5	-12	10	927	247	955	-0.01	-1.88	1.0000 
	-5	-12	-10	1293	259	1298	-0.12	1.1	1.0000 
	12	-5	-10	1410	335	1442	0.34	-0.55	1.0000 
	-6	-12	-10	820	184	802	0.36	-0.8	1.0000 
	12	-6	10	395	226	358	0.78	0.83	1.0000 
	-6	-12	10	838	232	820	0.14	-0.61	1.0000 
	12	-6	-10	256	149	223	0.81	-0.59	1.0000 
	-7	-12	-10	6	81	-19	-1.52	-0.55	1.0000 
	5	-13	-10	200	169	162	-0.92	-0.16	1.0000 
	13	4	-10	135	120	101	1.12	-0.66	1.0000 
	4	-13	-10	145	154	106	1.13	0.33	1.0000 
	13	3	-10	158	147	194	0.61	-1.61	1.0000 
	3	-13	-10	15	106	24	0.64	-2.06	1.0000 
	13	3	10	6	85	-128	0.61	1.51	1.0000 
	2	-13	-10	0	128	-19	-0.1	-0.18	1.0000 
	13	2	-10	60	117	55	-0.31	1.32	1.0000 
	13	2	10	172	101	168	-0.15	-0.58	1.0000 
	1	-13	10	90	112	85	0.1	-0.99	1.0000 
	1	-13	-10	435	188	429	0.08	1.24	1.0000 
	13	1	-10	29	112	35	-0.4	0.34	1.0000 
	13	1	10	194	129	210	-0.41	-0.76	1.0000 
	13	0	10	5	115	3	-0.03	0.85	1.0000 
	0	-13	-10	254	168	247	-0.08	-1.17	1.0000 
	13	0	-10	222	149	223	0.09	-0.92	1.0000 
	0	-13	10	176	126	173	-0.02	0.61	1.0000 
	-1	-13	-10	198	125	214	-0.42	0.73	1.0000 
	13	-1	10	113	130	106	0.15	-0.89	1.0000 
	-1	-13	10	343	145	365	-0.42	-0.36	1.0000 
	13	-1	-10	250	174	240	0.19	1.44	1.0000 
	13	-2	10	86	97	87	0.03	0	1.0000 
	-2	-13	-10	215	132	205	-0.39	1.2	1.0000 
	13	-2	-10	284	146	279	-0.1	-0.33	1.0000 
	-2	-13	10	400	133	390	-0.21	-0.45	1.0000 
	13	-3	10	9	110	-129	0.68	1.89	1.0000 
	-3	-13	10	143	146	183	0.92	1.2	1.0000 
	-3	-13	-10	137	130	170	0.43	-1.93	1.0000 
	13	-3	-10	61	118	86	0.63	-1.89	1.0000 
	13	-4	-10	94	126	61	1.21	0.46	1.0000 
	13	-4	10	380	175	312	1.2	-0.45	1.0000 
	-4	-13	10	242	144	200	0.97	0.18	1.0000 
	-4	-13	-10	129	114	101	0.99	-0.95	1.0000 
	13	-5	-10	164	131	130	-0.95	0.03	1.0000 
	13	-6	-10	320	186	437	-2.02	0.11	1.0000 
	14	2	10	305	143	195	2.37	0.2	1.0000 
	14	1	10	1696	367	1796	0.8	-0.04	1.0000 
	14	0	10	2003	400	2157	-1.17	-0.35	1.0000 
	0	-14	10	1903	303	2049	-1.14	-0.3	1.0000 
	-1	-14	10	1678	331	1780	0.81	-0.11	1.0000 
	-2	-14	10	89	137	37	2.25	0.14	1.0000 
	-1	-1	-11	2190	282	3673	-9.15	-1.63	1.0000 
	1	1	-11	1738	231	3079	-9.19	-0.69	1.0000 
	-1	1	-11	1847	246	3191	9.02	0.05	1.0000 
	1	-1	-11	1746	255	3025	8.83	1.25	1.0000 
	2	1	-11	8111	412	7144	-3.69	-0.15	1.0000 
	-1	2	-11	7621	368	6875	2.93	0.15	1.0000 
	2	1	-11	7829	377	6879	-3.69	-0.15	1.0000 
	1	-2	-11	7448	411	6681	3.07	0.66	1.0000 
	-2	-1	-11	7376	400	6403	-3.9	-1.03	1.0000 
	-1	-2	11	8197	361	7212	-3.73	0.58	1.0000 
	2	-1	-11	7435	364	6690	2.98	0.68	1.0000 
	2	-1	-11	7320	402	6581	2.98	0.68	1.0000 
	-2	1	-11	7346	386	6594	3.01	0.17	1.0000 
	-1	-2	-11	7751	423	6776	-3.81	-0.56	1.0000 
	1	2	-11	7993	361	7021	-3.73	-0.58	1.0000 
	2	-2	-11	8549	413	6702	-7.11	0.75	1.0000 
	2	2	-11	7677	333	6091	6.35	-1.5	1.0000 
	-2	-2	-11	8086	408	6469	6.3	-1.47	1.0000 
	2	-2	-11	8453	335	6617	-7.11	0.75	1.0000 
	-2	2	-11	8081	359	6256	-7.26	1.04	1.0000 
	-2	-2	11	7476	346	5912	6.35	1.5	1.0000 
	-3	-2	11	1792	239	2365	4.23	0.24	1.0000 
	2	-3	-11	1565	249	2110	-4.29	-0.39	1.0000 
	3	2	-11	1505	178	2033	4.23	-0.24	1.0000 
	-3	-2	-11	1519	243	2045	4.16	0.26	1.0000 
	2	-3	-11	1750	160	2324	-4.29	-0.39	1.0000 
	2	-3	11	1449	148	1999	-4.44	0.02	1.0000 
	3	2	-11	1798	244	2372	4.23	-0.24	1.0000 
	-1	3	-11	4434	235	3652	-4.17	1.31	1.0000 
	1	-3	-11	4252	294	3512	-3.95	-0.69	1.0000 
	1	-3	11	4588	226	3792	-4.17	-1.31	1.0000 
	-3	-1	-11	4198	292	3531	3.61	0.69	1.0000 
	3	1	-11	4234	287	3590	3.44	-0.02	1.0000 
	3	1	-11	3894	252	3277	3.44	-0.02	1.0000 
	1	3	-11	4303	229	3619	3.62	-0.52	1.0000 
	-3	1	-11	4577	284	3787	-4.1	0.63	1.0000 
	3	-1	-11	4329	262	3569	-4.04	0.08	1.0000 
	-1	-3	11	4107	249	3439	3.62	0.52	1.0000 
	-1	-3	-11	4524	320	3851	3.53	1.29	1.0000 
	3	-1	-11	4622	292	3835	-4.04	0.08	1.0000 
	2	3	-11	1418	157	1944	4.32	-0.32	1.0000 
	-2	-3	11	1753	230	2334	4.32	0.32	1.0000 
	-2	-3	-11	1166	225	1642	4.25	0.3	1.0000 
	3	-2	-11	1345	226	1878	-4.47	-0.36	1.0000 
	3	-2	-11	1232	171	1743	-4.47	-0.36	1.0000 
	2	3	11	1440	130	1965	4.25	-0.3	1.0000 
	3	-3	11	2385	132	2182	-1.43	-0.07	1.0000 
	3	-3	-11	2487	189	2300	-1.43	2.09	1.0000 
	3	3	-11	2384	179	2248	0.91	-0.67	1.0000 
	3	-3	-11	2451	265	2266	-1.43	2.09	1.0000 
	-3	-3	-11	2863	282	2709	0.91	-2.03	1.0000 
	3	3	11	2518	168	2373	0.91	2.03	1.0000 
	3	3	-11	2460	270	2322	0.91	-0.67	1.0000 
	-3	-3	11	2693	238	2548	0.91	0.67	1.0000 
	3	-4	-11	4195	260	4296	-0.54	1.64	1.0000 
	4	3	11	4217	270	4427	0.94	2.24	1.0000 
	4	3	-11	3702	347	3854	0.72	-2.08	1.0000 
	3	-4	-11	4529	367	4634	-0.54	1.64	1.0000 
	-4	-3	-11	3649	335	3844	0.94	-2.24	1.0000 
	3	-4	11	4220	219	4377	-0.82	-1.1	1.0000 
	-4	-3	11	3655	309	3806	0.72	2.08	1.0000 
	4	3	-11	4268	274	4432	0.72	-2.08	1.0000 
	-4	-3	-11	3871	252	4072	0.94	-2.24	1.0000 
	4	2	11	1683	187	1876	-1.54	-0.37	1.0000 
	-4	-2	-11	1904	255	2109	-1.54	0.37	1.0000 
	4	2	-11	1951	196	2161	-1.53	-0.25	1.0000 
	2	-4	11	1536	146	1641	0.91	-1.45	1.0000 
	4	2	-11	1767	246	1967	-1.53	-0.25	1.0000 
	-4	-2	11	1576	223	1765	-1.53	0.25	1.0000 
	2	-4	-11	1557	241	1684	1.08	1.93	1.0000 
	2	-4	-11	1804	140	1941	1.08	1.93	1.0000 
	-4	-2	-11	1979	155	2188	-1.54	0.37	1.0000 
	4	1	-11	10882	588	12564	5.19	-1.77	1.0000 
	-4	-1	-11	10051	442	11721	5.35	-1.09	1.0000 
	4	1	-11	10527	626	12182	5.19	-1.77	1.0000 
	1	-4	11	9712	492	11468	-5.66	-1.71	1.0000 
	-4	-1	-11	9444	602	11064	5.35	-1.09	1.0000 
	1	-4	-11	8739	602	10409	-5.68	0.92	1.0000 
	4	-1	-11	10319	627	12165	-5.79	1.39	1.0000 
	4	-1	-11	9736	597	11532	-5.79	1.39	1.0000 
	-1	-4	-11	10977	657	12696	5.28	-1.13	1.0000 
	-1	-4	11	9913	539	11530	5.21	1.73	1.0000 
	1	4	-11	10174	492	11811	5.21	-1.73	1.0000 
	4	-2	-11	1894	206	2030	1.05	1.84	1.0000 
	-2	-4	-11	1648	246	1849	-1.62	0.17	1.0000 
	4	-2	-11	1933	253	2070	1.05	1.84	1.0000 
	-2	-4	11	2135	236	2331	-1.38	0.07	1.0000 
	2	4	-11	1959	149	2146	-1.38	-0.07	1.0000 
	3	4	11	4126	228	4314	0.82	2.48	1.0000 
	-3	-4	11	3910	315	4089	0.85	1.78	1.0000 
	3	4	-11	4402	249	4592	0.85	-1.78	1.0000 
	-3	-4	-11	4515	371	4712	0.82	-2.48	1.0000 
	4	-3	-11	4168	300	4317	-0.78	1.53	1.0000 
	4	-3	-11	4380	371	4533	-0.78	1.53	1.0000 
	4	-4	-11	2666	304	2623	-0.37	-3	1.0000 
	4	-4	-11	2447	215	2405	-0.37	-3	1.0000 
	-4	-4	-11	2731	285	2466	1.9	-3.58	1.0000 
	4	4	11	2579	183	2320	1.9	3.58	1.0000 
	-4	-4	-11	2308	191	2062	1.9	-3.58	1.0000 
	4	4	-11	2744	308	2526	1.61	-3.78	1.0000 
	4	4	-11	2085	164	1891	1.61	-3.78	1.0000 
	-4	-4	11	2930	290	2705	1.61	3.78	1.0000 
	5	4	11	675	128	644	-0.44	1.07	1.0000 
	5	4	-11	882	214	853	-0.56	-2.34	1.0000 
	-5	-4	11	843	199	814	-0.56	2.34	1.0000 
	-5	-4	-11	807	141	773	-0.44	-1.07	1.0000 
	5	4	-11	926	133	897	-0.56	-2.34	1.0000 
	-5	-4	-11	842	207	808	-0.44	-1.07	1.0000 
	4	-5	-11	777	135	816	0.02	3.43	1.0000 
	4	-5	-11	659	195	692	0.02	3.43	1.0000 
	5	3	-11	752	182	641	1.69	-2.57	1.0000 
	3	-5	-11	775	106	676	-1.24	0.35	1.0000 
	-5	-3	-11	677	108	566	1.54	-1.13	1.0000 
	3	-5	-11	781	186	681	-1.24	0.35	1.0000 
	3	-5	11	906	111	764	-1.7	-1.18	1.0000 
	5	3	11	742	128	626	1.54	1.13	1.0000 
	-5	-3	-11	832	188	709	1.54	-1.13	1.0000 
	-5	-3	11	744	174	633	1.69	2.57	1.0000 
	2	-5	-11	1	104	20	2.21	-0.77	1.0000 
	5	2	11	49	76	99	-1.95	-0.04	1.0000 
	2	-5	11	15	66	52	2.23	0.32	1.0000 
	5	2	-11	75	114	138	-2.01	0.75	1.0000 
	-5	-2	-11	30	101	71	-1.95	0.04	1.0000 
	1	-5	-11	4719	373	4600	-0.59	-0.45	1.0000 
	5	1	-11	4487	358	4403	0.43	0.71	1.0000 
	-5	-1	-11	5028	213	4878	0.71	-0.11	1.0000 
	1	-5	11	4381	274	4263	-0.6	0.3	1.0000 
	-1	-5	-11	5183	393	5055	0.6	0.24	1.0000 
	5	-1	-11	4802	357	4659	-0.69	0.06	1.0000 
	-1	-5	11	5125	331	5009	0.54	-0.14	1.0000 
	-2	-5	-11	10	109	-10	-2.04	0.65	1.0000 
	5	-2	-11	3	97	26	2.26	-0.26	1.0000 
	5	-2	-11	52	89	112	2.26	-0.26	1.0000 
	-2	-5	11	9	95	-25	-2.04	-0.17	1.0000 
	-3	-5	-11	763	147	653	1.46	-1.4	1.0000 
	5	-3	-11	873	154	749	-1.46	0.27	1.0000 
	-3	-5	-11	844	182	729	1.46	-1.4	1.0000 
	5	-3	-11	861	186	738	-1.46	0.27	1.0000 
	-3	-5	11	598	159	491	1.68	1.94	1.0000 
	-4	-5	-11	869	197	819	-0.69	-1.68	1.0000 
	-4	-5	-11	971	165	919	-0.69	-1.68	1.0000 
	5	-4	-11	830	215	868	-0.06	3	1.0000 
	-4	-5	11	829	195	807	-0.36	1.64	1.0000 
	4	5	-11	775	208	754	-0.36	-1.64	1.0000 
	5	-4	-11	587	141	616	-0.06	3	1.0000 
	5	-5	-11	1193	190	1393	1.01	5.25	1.0000 
	-5	-5	11	1171	250	1355	-1.62	1.95	1.0000 
	-5	-5	-11	1106	186	1282	-1.52	-2.45	1.0000 
	-5	-5	-11	1379	254	1576	-1.52	-2.45	1.0000 
	5	-5	-11	879	236	1044	1.01	5.25	1.0000 
	5	5	-11	1161	267	1344	-1.62	-1.95	1.0000 
	5	-6	-11	1185	258	1243	-0.42	2.15	1.0000 
	-6	-5	11	1325	258	1345	0.16	0.86	1.0000 
	6	5	-11	1568	297	1590	0.16	-0.86	1.0000 
	-6	-5	-11	1932	292	1958	0.19	-0.49	1.0000 
	-6	-5	-11	1335	189	1356	0.19	-0.49	1.0000 
	-6	-4	-11	401	124	530	-1.63	1.27	1.0000 
	-6	-4	11	477	189	613	-1.42	-1.48	1.0000 
	4	-6	-11	123	175	481	-1.21	8.12	1.0000 
	6	4	-11	435	190	565	-1.42	1.48	1.0000 
	6	4	11	157	99	241	-1.63	-1.27	1.0000 
	3	-6	-11	345	160	311	-0.78	1.53	1.0000 
	-6	-3	11	5	113	-34	-0.18	1.52	1.0000 
	6	3	-11	32	114	30	-0.18	-1.52	1.0000 
	6	3	11	129	90	139	-0.36	0.98	1.0000 
	3	-6	11	64	71	45	-0.86	-1.64	1.0000 
	-6	-3	-11	285	82	301	-0.36	-0.98	1.0000 
	2	-6	-11	1253	226	1196	0.81	-2.6	1.0000 
	2	-6	11	967	144	924	0.77	2.97	1.0000 
	6	2	11	1053	179	1057	-0.17	2.37	1.0000 
	6	2	-11	1288	238	1267	-0.33	-1.65	1.0000 
	1	-6	-11	568	159	386	2.77	-0.67	1.0000 
	1	-6	11	562	118	384	2.73	0.82	1.0000 
	6	1	11	627	142	466	-2.29	0.57	1.0000 
	6	1	-11	798	169	614	-2.34	0.32	1.0000 
	-1	-6	-11	570	173	421	-2.25	-0.02	1.0000 
	-1	-6	11	617	145	448	-2.44	0.2	1.0000 
	6	-1	-11	600	145	417	2.72	-0.24	1.0000 
	6	-2	-11	820	176	782	0.69	-2.66	1.0000 
	-2	-6	-11	1225	224	1230	-0.18	-2.35	1.0000 
	-2	-6	11	953	194	934	-0.33	1.63	1.0000 
	6	-3	-11	92	91	73	-0.74	1.36	1.0000 
	-3	-6	-11	56	99	59	-0.26	-1.15	1.0000 
	-3	-6	-11	307	147	317	-0.26	-1.15	1.0000 
	-3	-6	11	3	131	-4	-0.17	1.15	1.0000 
	-4	-6	-11	234	163	342	-1.61	1.56	1.0000 
	6	-4	-11	31	157	244	-1.07	8.24	1.0000 
	-4	-6	-11	366	145	499	-1.61	1.56	1.0000 
	6	-4	-11	82	138	395	-1.07	8.24	1.0000 
	-4	-6	11	260	159	367	-1.58	-1.39	1.0000 
	-5	-6	-11	1418	209	1451	0.28	-0.66	1.0000 
	6	-5	-11	1439	217	1483	-0.26	1.97	1.0000 
	5	6	-11	1209	266	1225	0.14	-0.67	1.0000 
	-5	-6	11	1214	242	1230	0.14	0.67	1.0000 
	-5	-6	-11	1152	233	1182	0.28	-0.66	1.0000 
	6	-5	-11	1076	250	1113	-0.26	1.97	1.0000 
	6	-6	-11	913	257	1093	1.71	-3.43	1.0000 
	-6	-6	11	1378	267	1332	0.5	2.22	1.0000 
	-6	-6	-11	1374	207	1313	0.58	-1.48	1.0000 
	-6	-6	-11	1262	239	1203	0.58	-1.48	1.0000 
	6	6	-11	1431	292	1384	0.5	-2.22	1.0000 
	-7	-6	11	3	105	-16	-1.03	0.64	1.0000 
	7	6	-11	112	131	145	-1.03	-0.64	1.0000 
	6	-7	-11	5	124	10	0.69	-0.42	1.0000 
	-7	-6	-11	18	71	35	-1.18	-0.43	1.0000 
	5	-7	-11	324	168	394	-1.24	0.13	1.0000 
	-7	-5	11	238	161	301	1.27	0.61	1.0000 
	7	5	-11	141	141	190	1.27	-0.61	1.0000 
	-7	-5	-11	402	123	446	0.7	0.73	1.0000 
	7	4	11	1494	225	1571	-0.62	1.09	1.0000 
	7	4	-11	1555	301	1588	-0.24	-0.84	1.0000 
	4	-7	-11	1725	288	1767	0.36	2.05	1.0000 
	-7	-4	11	1436	261	1467	-0.24	0.84	1.0000 
	7	3	11	3929	304	3431	-2.72	0.76	1.0000 
	-7	-3	11	3309	326	2861	-2.68	0.26	1.0000 
	7	3	-11	4045	402	3548	-2.68	-0.26	1.0000 
	3	-7	-11	3590	337	3168	2.5	1.51	1.0000 
	3	-7	11	3521	234	3097	2.59	-2.3	1.0000 
	2	-7	11	1348	171	1172	-1.67	-0.15	1.0000 
	7	2	11	1025	187	885	1.45	1.21	1.0000 
	2	-7	-11	1502	238	1322	-1.61	0.14	1.0000 
	7	2	-11	1852	280	1678	1.33	-1.24	1.0000 
	7	1	-11	31	97	-1	3.68	-0.39	1.0000 
	1	-7	-11	89	131	204	-3.7	-0.06	1.0000 
	1	-7	11	7	87	58	-3.78	1.05	1.0000 
	7	1	11	18	98	86	3.7	0.92	1.0000 
	-1	-7	11	27	89	-50	3.44	0.39	1.0000 
	7	-1	-11	33	74	-73	-3.79	-0.47	1.0000 
	-1	-7	-11	32	112	-19	3.68	-0.8	1.0000 
	7	-2	-11	1565	240	1387	-1.54	-0.08	1.0000 
	-2	-7	-11	1155	216	1011	1.41	-1.04	1.0000 
	-2	-7	11	1262	209	1122	1.29	1.37	1.0000 
	-2	-7	-11	1401	226	1242	1.41	-1.04	1.0000 
	7	-3	-11	3467	314	3041	2.6	1.97	1.0000 
	-3	-7	11	3681	333	3229	-2.54	1.05	1.0000 
	-3	-7	-11	3674	333	3208	-2.65	-0.21	1.0000 
	-3	-7	-11	3897	302	3417	-2.65	-0.21	1.0000 
	-4	-7	-11	1653	242	1712	-0.43	-1.17	1.0000 
	-4	-7	11	1205	248	1251	-0.41	0.74	1.0000 
	-4	-7	-11	1768	283	1829	-0.43	-1.17	1.0000 
	7	-4	-11	1168	222	1184	0.2	2.38	1.0000 
	-5	-7	-11	62	156	95	1.24	-0.05	1.0000 
	7	-5	-11	110	159	159	-1.4	-0.02	1.0000 
	-5	-7	-11	257	124	320	1.24	-0.05	1.0000 
	7	-5	-11	224	132	291	-1.4	-0.02	1.0000 
	-5	-7	11	228	163	279	1.06	-0.4	1.0000 
	-6	-7	-11	188	103	223	-0.86	-0.42	1.0000 
	-6	-7	-11	13	118	23	-0.86	-0.42	1.0000 
	6	7	-11	167	141	208	-1.03	-0.35	1.0000 
	-6	-7	11	115	139	149	-1.03	0.35	1.0000 
	7	-6	-11	63	134	78	0.62	-0.3	1.0000 
	7	7	-11	10	119	12	-1.49	-2.01	1.0000 
	-7	-7	-11	72	83	112	-1.36	-2.24	1.0000 
	7	-7	-11	42	126	51	0.69	-1.42	1.0000 
	-7	-7	11	77	138	111	-1.49	2.01	1.0000 
	8	7	-11	48	126	86	1.72	-0.82	1.0000 
	-8	-7	11	55	135	96	1.72	0.82	1.0000 
	7	-8	-11	621	251	753	-1.73	-2.02	1.0000 
	6	-8	-11	216	155	154	-2	0.86	1.0000 
	8	6	-11	33	133	15	1.22	-0.14	1.0000 
	-8	-6	11	143	149	103	1.22	0.14	1.0000 
	8	5	-11	67	125	117	1.74	-0.9	1.0000 
	5	-8	-11	339	185	439	-1.63	0.95	1.0000 
	-8	-5	11	73	140	125	1.74	0.9	1.0000 
	4	-8	-11	358	174	398	-0.64	-0.81	1.0000 
	8	4	11	391	148	490	1.5	1.15	1.0000 
	8	4	-11	535	221	650	1.44	-1.66	1.0000 
	-8	-4	11	303	154	390	1.44	1.66	1.0000 
	8	3	-11	4007	432	4268	-1.35	-0.08	1.0000 
	8	3	11	3646	352	3892	-1.31	0.62	1.0000 
	3	-8	-11	4605	419	4890	1.41	1.5	1.0000 
	2	-8	-11	2114	295	2030	0.56	1.96	1.0000 
	8	2	-11	2269	328	2155	-0.8	0.23	1.0000 
	8	2	11	1845	259	1736	-0.85	-0.27	1.0000 
	2	-8	11	1877	213	1766	0.81	-2.71	1.0000 
	1	-8	11	398	130	313	-1.47	0.8	1.0000 
	8	1	-11	585	185	491	1.45	1.01	1.0000 
	8	1	11	401	151	319	1.54	-0.95	1.0000 
	1	-8	-11	508	173	405	-1.57	-0.89	1.0000 
	-1	-8	11	415	144	341	1.34	-0.77	1.0000 
	8	-1	11	130	128	78	-1.67	0.53	1.0000 
	-1	-8	-11	613	187	511	1.55	1.01	1.0000 
	8	-1	-11	363	162	278	-1.53	-1.13	1.0000 
	-2	-8	-11	2233	294	2134	-0.68	0.59	1.0000 
	-2	-8	-11	2092	288	1996	-0.68	0.59	1.0000 
	-2	-8	11	2213	277	2095	-0.85	-0.07	1.0000 
	8	-2	-11	1784	284	1683	0.75	2.37	1.0000 
	-3	-8	11	3935	373	4169	-1.2	0.75	1.0000 
	-3	-8	-11	4728	388	4990	-1.25	-0.05	1.0000 
	8	-3	-11	3723	400	3979	1.42	1.6	1.0000 
	-3	-8	-11	4924	426	5191	-1.25	-0.05	1.0000 
	-4	-8	-11	516	168	624	1.38	-1.63	1.0000 
	-4	-8	11	401	189	505	1.55	1.21	1.0000 
	8	-4	-11	466	183	519	-0.7	-1.39	1.0000 
	-4	-8	-11	152	152	210	1.38	-1.63	1.0000 
	-5	-8	11	157	150	224	1.62	-0.61	1.0000 
	-5	-8	-11	116	163	177	1.64	-1.03	1.0000 
	8	-5	-11	119	132	184	-1.73	0.82	1.0000 
	-5	-8	-11	146	117	214	1.64	-1.03	1.0000 
	8	-6	-11	12	96	-10	-2.05	1.13	1.0000 
	8	-6	-11	12	115	-88	-2.05	1.13	1.0000 
	-6	-8	-11	410	120	338	1.18	-0.51	1.0000 
	-6	-8	-11	156	133	113	1.18	-0.51	1.0000 
	-6	-8	11	130	153	94	1.21	-0.16	1.0000 
	8	-7	-11	172	160	236	-1.63	-1.47	1.0000 
	7	8	-11	179	159	255	1.86	-1.1	1.0000 
	-7	-8	-11	138	116	202	1.75	-0.73	1.0000 
	-7	-8	11	259	168	350	1.86	1.1	1.0000 
	8	-8	-11	619	228	683	0.8	0.42	1.0000 
	-8	-8	-11	519	146	528	-0.17	-0.54	1.0000 
	8	8	-11	493	195	507	-0.29	-0.91	1.0000 
	-8	-8	11	368	174	380	-0.29	0.91	1.0000 
	8	-9	-11	430	160	357	1.19	1.79	1.0000 
	-9	-8	11	564	172	470	-1.35	-0.61	1.0000 
	9	8	-11	372	155	297	-1.35	0.61	1.0000 
	9	7	-11	584	179	408	2.62	1.56	1.0000 
	-9	-7	11	424	172	276	2.62	-1.56	1.0000 
	7	-9	-11	423	159	269	-2.77	0.3	1.0000 
	-9	-6	11	346	186	462	1.84	2.23	1.0000 
	6	-9	-11	234	180	334	-1.97	0.26	1.0000 
	9	6	-11	10	100	16	1.84	-2.23	1.0000 
	5	-9	-11	543	231	718	2.28	1.63	1.0000 
	9	5	-11	574	238	796	-2.75	-1.95	1.0000 
	-9	-5	11	971	265	1256	-2.75	1.95	1.0000 
	4	-9	-11	206	148	309	1.74	1.26	1.0000 
	-9	-4	11	101	141	209	-2.25	-1.87	1.0000 
	9	4	11	172	118	313	-2.17	-2.17	1.0000 
	9	4	-11	68	140	159	-2.25	1.87	1.0000 
	3	-9	-11	505	205	664	-2.17	-0.49	1.0000 
	9	3	-11	598	225	761	2.08	-0.16	1.0000 
	9	3	11	467	184	664	2.74	0.55	1.0000 
	2	-9	11	79	89	81	-0.4	-0.7	1.0000 
	9	2	11	1	71	-3	0.61	0.24	1.0000 
	2	-9	-11	10	99	8	-0.5	0.53	1.0000 
	9	2	-11	26	117	16	0.83	-0.05	1.0000 
	9	1	-11	3	119	46	-4.71	2.13	1.0000 
	1	-9	-11	36	119	179	5	0.85	1.0000 
	1	-9	11	81	128	268	4.91	-1.07	1.0000 
	9	1	11	65	133	243	-4.88	-1.82	1.0000 
	-1	-9	-11	64	128	239	-4.77	1.89	1.0000 
	9	-1	-11	20	143	142	4.99	1.06	1.0000 
	-1	-9	-11	23	134	148	-4.77	1.89	1.0000 
	9	-1	11	12	117	114	4.92	-0.68	1.0000 
	-1	-9	11	18	129	136	-4.85	-1.95	1.0000 
	9	-2	-11	2	92	-38	-0.59	0.83	1.0000 
	-2	-9	-11	134	129	107	0.92	-0.1	1.0000 
	-2	-9	-11	2	88	-41	0.92	-0.1	1.0000 
	9	-2	11	100	133	100	-0.27	-0.45	1.0000 
	-2	-9	11	25	120	16	0.63	0.21	1.0000 
	-3	-9	-11	755	230	949	2.24	0.27	1.0000 
	-3	-9	-11	350	179	486	2.24	0.27	1.0000 
	9	-3	-11	353	184	477	-1.98	-0.99	1.0000 
	-3	-9	11	554	197	736	2.3	1.38	1.0000 
	-4	-9	11	57	138	148	-2.18	-2.17	1.0000 
	-4	-9	-11	52	130	135	-2.19	1.94	1.0000 
	-4	-9	-11	104	142	213	-2.19	1.94	1.0000 
	9	-4	-11	1	108	19	2.1	0.61	1.0000 
	-5	-9	-11	490	218	705	-2.84	-2.24	1.0000 
	9	-5	-11	441	182	603	2.33	1.66	1.0000 
	-5	-9	11	613	244	855	-2.99	-0.64	1.0000 
	-5	-9	-11	497	205	713	-2.84	-2.24	1.0000 
	9	-6	-11	288	164	383	-1.72	0.33	1.0000 
	-6	-9	11	320	187	425	1.72	2.29	1.0000 
	-6	-9	-11	296	137	392	1.64	-2.31	1.0000 
	-7	-9	-11	290	134	167	2.67	1.51	1.0000 
	-7	-9	11	295	159	174	2.67	0.07	1.0000 
	9	-7	-11	42	140	7	-2.5	0.54	1.0000 
	-8	-9	11	689	154	596	-1.21	-0.5	1.0000 
	-8	-9	-11	571	147	491	-1.13	0.68	1.0000 
	9	-8	-11	388	185	310	1.34	1.95	1.0000 
	9	-9	-11	422	171	483	0.94	0.56	1.0000 
	-9	-9	11	588	209	620	-0.44	0.41	1.0000 
	9	9	-11	321	163	345	-0.44	-0.41	1.0000 
	9	-10	-11	122	130	166	-1	-1.87	1.0000 
	-10	-9	11	158	136	200	1.03	-0.41	1.0000 
	10	9	-11	104	119	138	1.03	0.41	1.0000 
	-10	-8	11	213	129	234	-0.43	-0.6	1.0000 
	10	8	-11	1	118	-5	-0.43	0.6	1.0000 
	8	-10	-11	149	115	163	0.25	1.26	1.0000 
	10	7	-11	4	110	-60	0.48	-1.22	1.0000 
	7	-10	-11	87	109	188	-1.39	3.8	1.0000 
	-10	-7	11	246	125	253	0.48	1.22	1.0000 
	-10	-6	11	434	144	401	-0.88	1.76	1.0000 
	10	6	-11	587	155	550	-0.88	-1.76	1.0000 
	6	-10	-11	628	206	599	0.46	-0.77	1.0000 
	5	-10	-11	72	135	272	4.16	-3.54	1.0000 
	10	5	-11	141	167	313	-3.78	0.95	1.0000 
	-10	-5	11	435	190	712	-3.78	-0.95	1.0000 
	10	4	-11	757	225	727	-0.46	1.37	1.0000 
	10	4	11	812	195	801	-0.14	-0.52	1.0000 
	4	-10	-11	842	218	788	0.68	-1.04	1.0000 
	3	-10	-11	818	207	704	-1.38	-0.41	1.0000 
	10	3	11	990	210	876	1.26	-0.49	1.0000 
	10	3	-11	737	241	634	1.31	-0.29	1.0000 
	10	2	11	17	85	11	-0.52	-0.94	1.0000 
	2	-10	-11	5	105	2	0.42	0.86	1.0000 
	2	-10	11	292	133	274	0.44	-0.68	1.0000 
	10	2	-11	189	157	176	-0.4	0.73	1.0000 
	1	-10	-11	78	135	224	3.06	3.02	1.0000 
	1	-10	11	181	158	375	2.78	-3.1	1.0000 
	10	1	11	54	110	141	-3	0.58	1.0000 
	10	1	-11	153	185	274	-2.78	-0.15	1.0000 
	10	-1	11	78	136	210	2.86	-2.79	1.0000 
	-1	-10	11	133	148	252	-2.89	-0.02	1.0000 
	-1	-10	-11	227	153	377	-2.87	-0.57	1.0000 
	-1	-10	-11	202	155	345	-2.87	-0.57	1.0000 
	10	-1	-11	161	169	361	3	3.24	1.0000 
	-2	-10	-11	114	119	106	-0.3	0.71	1.0000 
	-2	-10	11	136	131	120	-0.61	-1.1	1.0000 
	10	-2	-11	5	106	2	0.41	0.78	1.0000 
	10	-2	11	212	136	199	0.4	-0.83	1.0000 
	-3	-10	11	605	192	521	1.18	-0.43	1.0000 
	10	-3	11	791	246	679	-1.38	0.26	1.0000 
	-3	-10	-11	557	164	473	1.24	-0.14	1.0000 
	10	-3	-11	799	244	707	-1.12	-0.69	1.0000 
	10	-4	-11	274	152	235	0.83	-0.96	1.0000 
	-4	-10	11	665	203	637	-0.37	0.04	1.0000 
	-4	-10	-11	584	177	558	-0.46	1.47	1.0000 
	10	-4	11	537	230	491	0.73	1.19	1.0000 
	-5	-10	-11	326	182	582	-3.82	1.41	1.0000 
	10	-5	-11	52	149	223	4.12	-3.33	1.0000 
	-5	-10	11	112	164	302	-3.53	2.99	1.0000 
	-6	-10	11	637	215	665	-1.11	3.62	1.0000 
	10	-6	-11	465	168	428	0.68	-0.93	1.0000 
	-6	-10	-11	282	131	236	-1.14	-1.34	1.0000 
	-7	-10	-11	7	73	4	0.46	-0.91	1.0000 
	-7	-10	11	330	162	326	0.14	0.45	1.0000 
	10	-8	-11	3	114	-21	0.44	1.13	1.0000 
	-8	-10	-11	1	82	-32	-0.36	0.5	1.0000 
	-8	-10	11	97	125	115	-0.48	-1.41	1.0000 
	10	-9	-11	60	154	86	-0.86	-1.8	1.0000 
	-9	-10	11	400	176	472	1.11	-0.72	1.0000 
	9	-11	-11	2	89	-59	0.86	-0.41	1.0000 
	-11	-8	11	88	116	76	0.65	1.47	1.0000 
	11	8	-11	225	136	209	0.65	-1.47	1.0000 
	8	-11	-11	426	151	409	-0.29	1.14	1.0000 
	-11	-7	11	715	190	826	1.09	3.69	1.0000 
	7	-11	-11	506	202	627	-1.27	3.34	1.0000 
	11	7	-11	517	224	608	1.09	-3.69	1.0000 
	11	6	-11	472	221	595	-1.73	1.66	1.0000 
	6	-11	-11	425	166	551	1.85	-0.77	1.0000 
	-11	-6	11	438	174	557	-1.73	-1.66	1.0000 
	-11	-5	11	80	154	314	-2.42	-5.35	1.0000 
	5	-11	-11	127	176	512	3.52	-6.72	1.0000 
	11	5	-11	18	112	168	-2.42	5.35	1.0000 
	11	4	-11	125	104	105	0.68	0.46	1.0000 
	4	-11	-11	307	128	355	-0.36	-3.63	1.0000 
	11	3	-11	90	143	87	-0.1	0.14	1.0000 
	11	3	11	59	90	34	-1.15	-1.85	1.0000 
	11	2	11	36	66	46	-0.4	-0.44	1.0000 
	11	2	-11	1	98	-96	-0.18	-0.45	1.0000 
	11	1	-11	35	143	141	2.39	-3.27	1.0000 
	1	-11	11	143	139	252	-2.43	-1.38	1.0000 
	11	1	11	2	113	42	2.1	2.78	1.0000 
	1	-11	-11	190	179	317	-2.56	1.22	1.0000 
	-1	-11	11	94	168	222	2.31	2.69	1.0000 
	-1	-11	-11	22	126	109	2.45	-3.06	1.0000 
	11	-1	-11	88	155	170	-2.39	0.94	1.0000 
	11	-1	11	61	127	149	-2.64	-1.7	1.0000 
	11	-2	11	54	127	88	0.05	-2.18	1.0000 
	-2	-11	11	3	108	-137	-0.18	-1.05	1.0000 
	11	-2	-11	84	138	125	0.45	1.81	1.0000 
	-2	-11	-11	1	74	-172	-0.19	-0.61	1.0000 
	-3	-11	-11	284	133	278	-0.18	-0.41	1.0000 
	11	-3	11	96	114	94	0.06	-2.14	1.0000 
	11	-3	-11	279	178	297	-0.04	2.7	1.0000 
	-3	-11	11	193	135	204	-0.33	-3.45	1.0000 
	11	-4	11	22	101	-69	-0.21	3.15	1.0000 
	-4	-11	11	318	164	309	0.69	2.3	1.0000 
	-4	-11	-11	277	118	257	0.74	1.26	1.0000 
	11	-4	-11	211	176	237	-0.38	-3.37	1.0000 
	-5	-11	11	93	159	284	-2	4.39	1.0000 
	11	-5	11	23	153	246	3.69	6.23	1.0000 
	11	-5	-11	66	165	377	3.63	-6.6	1.0000 
	-5	-11	-11	70	105	322	-2.44	5.92	1.0000 
	11	-6	-11	189	146	276	1.85	-1.04	1.0000 
	11	-6	11	483	262	621	1.9	0.97	1.0000 
	-6	-11	11	967	279	1132	-1.65	0.72	1.0000 
	-6	-11	-11	650	202	801	-1.83	1.36	1.0000 
	11	-7	11	743	333	885	-1.3	-2.82	1.0000 
	-7	-11	11	808	259	897	1.03	0.3	1.0000 
	-7	-11	-11	862	200	998	1.15	-4.01	1.0000 
	11	-8	-11	297	186	281	-0.31	1.16	1.0000 
	-8	-11	-11	485	119	459	0.79	-1.6	1.0000 
	-12	-6	11	381	112	366	-0.38	-0.69	1.0000 
	12	6	-11	225	146	214	-0.38	0.69	1.0000 
	12	5	-11	88	113	137	1.45	0.98	1.0000 
	12	4	-11	8	90	23	-1.37	-0.02	1.0000 
	3	-12	-11	401	148	353	0.75	1.62	1.0000 
	12	3	11	443	143	398	-0.68	-0.76	1.0000 
	12	3	-11	736	244	673	-0.74	0.87	1.0000 
	2	-12	-11	644	188	509	-1.87	-0.27	1.0000 
	12	2	11	985	213	832	1.65	0.91	1.0000 
	12	2	-11	576	171	441	1.95	-1.02	1.0000 
	12	1	-11	26	139	62	2.23	-1.92	1.0000 
	1	-12	-11	169	171	278	-2.51	-0.89	1.0000 
	12	1	11	214	123	314	2.1	1.27	1.0000 
	1	-12	11	407	161	557	-2.31	0.69	1.0000 
	-1	-12	-11	228	137	338	2.23	-1.61	1.0000 
	12	-1	-11	307	202	445	-2.42	-1.13	1.0000 
	-1	-12	11	232	141	343	2.23	1.5	1.0000 
	12	-1	11	221	156	343	-2.46	0.43	1.0000 
	12	-2	-11	784	223	641	-1.77	-0.33	1.0000 
	12	-2	11	541	178	412	-1.97	0.1	1.0000 
	-2	-12	11	824	221	666	1.88	1.02	1.0000 
	-2	-12	-11	414	147	314	1.7	-1.02	1.0000 
	12	-3	11	160	115	129	0.77	-1.16	1.0000 
	12	-3	-11	222	149	191	0.61	1.46	1.0000 
	-3	-12	-11	375	151	332	-0.72	0.68	1.0000 
	-3	-12	11	243	149	215	-0.55	-0.92	1.0000 
	-4	-12	11	59	138	95	-1.31	0.59	1.0000 
	12	-4	11	75	138	111	1.32	-0.43	1.0000 
	12	-4	-11	9	124	23	1.14	-0.08	1.0000 
	-4	-12	-11	5	84	-194	-1.32	0.61	1.0000 
	-5	-12	11	5	120	-72	1.21	0.75	1.0000 
	-5	-12	-11	45	92	81	1.46	0.93	1.0000 
	12	-5	-11	75	119	107	-1.11	-0.5	1.0000 
	12	-5	11	3	148	-49	-1.07	0.3	1.0000 
	-6	-12	11	299	156	283	-0.36	-0.34	1.0000 
	-6	-12	-11	81	128	73	-0.34	0.25	1.0000 
	12	-6	11	318	196	284	0.69	-0.17	1.0000 
	-7	-12	-11	191	117	247	-1.19	-0.57	1.0000 
	4	-13	-11	152	116	136	0.4	1.19	1.0000 
	3	-13	-11	54	117	38	-0.66	-1.08	1.0000 
	13	3	-11	117	132	111	0.19	-0.05	1.0000 
	13	3	11	199	82	166	0.74	0.9	1.0000 
	13	2	11	23	87	30	0.57	0.72	1.0000 
	2	-13	-11	546	212	625	-1.14	-1.3	1.0000 
	13	2	-11	9	123	13	0.52	-0.32	1.0000 
	1	-13	-11	4	122	-50	1.24	-0.59	1.0000 
	13	1	-11	6	115	-23	-1.59	0.2	1.0000 
	13	1	11	141	140	204	-1.59	-0.23	1.0000 
	13	-1	11	4	82	-240	1.25	0.6	1.0000 
	-1	-13	-11	6	103	-26	-1.62	0.41	1.0000 
	-1	-13	11	5	101	-10	-1.51	-0.12	1.0000 
	13	-1	-11	142	135	190	1.3	-0.27	1.0000 
	13	-2	-11	143	151	181	-1.11	-1.19	1.0000 
	-2	-13	11	163	125	183	0.58	0.87	1.0000 
	-2	-13	-11	165	128	184	0.5	-0.23	1.0000 
	13	-2	11	5	102	-110	-0.99	1.18	1.0000 
	-3	-13	-11	0	96	-77	0.24	0.12	1.0000 
	13	-3	11	294	158	265	-0.51	0.94	1.0000 
	13	-3	-11	254	124	218	-0.7	-1.36	1.0000 
	-3	-13	11	57	141	47	0.26	1.52	1.0000 
	13	-4	-11	2	95	-13	0.29	1.01	1.0000 
	-4	-13	11	1	103	-119	-0.51	-0.08	1.0000 
	-4	-13	-11	18	128	12	-0.5	-0.27	1.0000 
	13	-5	-11	22	119	-235	-2.56	1.8	1.0000 
	14	2	11	275	133	249	0.52	-0.32	1.0000 
	14	1	11	3	90	-253	-0.81	-0.76	1.0000 
	-1	-14	11	163	126	142	-0.97	-0.78	1.0000 
	0	0	-12	103873	3386	95094	9.14	3.59	1.0000 
	-1	0	-12	84327	3120	86287	2.15	1.72	1.0000 
	1	0	-12	85652	3111	87533	2.02	2.18	1.0000 
	0	-1	-12	84614	3133	86418	1.93	2.4	1.0000 
	0	1	-12	85925	3100	87896	2.16	1.48	1.0000 
	1	-1	-12	58366	2135	57963	0.45	3.37	1.0000 
	-1	-1	-12	56659	2143	56342	0.37	2.11	1.0000 
	-1	1	-12	59008	2109	58478	0.64	2.6	1.0000 
	1	1	-12	56787	2093	56325	0.58	1.87	1.0000 
	-2	-1	-12	5382	401	6142	3.21	1.8	1.0000 
	-1	2	-12	5398	362	6266	3.67	1.76	1.0000 
	2	1	-12	5719	373	6547	3.41	1.74	1.0000 
	1	-2	-12	6063	417	6898	3.31	2.06	1.0000 
	2	1	-12	5868	407	6706	3.41	1.74	1.0000 
	-2	0	-12	10710	574	11185	-1.56	0.99	1.0000 
	0	-2	-12	10935	599	11487	-1.79	1.19	1.0000 
	2	0	-12	11426	576	11932	-1.61	1.26	1.0000 
	0	2	-12	10943	534	11449	-1.64	1.07	1.0000 
	2	0	-12	10616	565	11104	-1.61	1.26	1.0000 
	1	2	-12	5555	355	6328	3.22	1.77	1.0000 
	2	-1	-12	6011	415	6860	3.38	2.05	1.0000 
	-2	1	-12	5529	390	6414	3.7	1.77	1.0000 
	2	-1	-12	5570	366	6388	3.38	2.05	1.0000 
	-1	-2	-12	6138	438	6942	3.18	1.92	1.0000 
	-2	2	-12	6	78	50	6.15	1.26	1.0000 
	2	-2	-12	88	76	-43	5.91	2.11	1.0000 
	2	-2	-12	52	50	5	5.91	2.11	1.0000 
	-2	-2	-12	25	91	40	6.81	2.76	1.0000 
	2	2	-12	115	39	-43	6.73	2.4	1.0000 
	3	2	-12	2	71	-75	0.79	0.37	1.0000 
	2	-3	-12	64	97	50	0.53	1.61	1.0000 
	2	-3	12	44	54	31	0.59	-1.1	1.0000 
	-3	-2	-12	532	147	483	0.71	1.15	1.0000 
	-2	3	-12	100	71	81	0.59	1.1	1.0000 
	3	2	-12	60	56	42	0.79	0.37	1.0000 
	2	-3	-12	86	50	70	0.53	1.61	1.0000 
	1	-3	-12	1076	222	1625	4.95	0.87	1.0000 
	-1	3	-12	656	140	1133	5.36	0.3	1.0000 
	3	1	-12	719	164	1174	4.95	0.39	1.0000 
	3	1	-12	646	185	1080	4.95	0.39	1.0000 
	-3	-1	-12	741	194	1189	4.8	0.67	1.0000 
	1	-3	12	742	137	1245	5.36	-0.3	1.0000 
	-3	0	-12	51	83	20	1.41	1.66	1.0000 
	3	0	-12	73	74	37	1.26	1.72	1.0000 
	0	-3	-12	991	173	864	1.19	1.92	1.0000 
	0	3	-12	168	64	106	1.51	1.64	1.0000 
	0	-3	12	118	80	67	1.51	-1.64	1.0000 
	-3	1	-12	699	178	1166	5.13	0.46	1.0000 
	3	-1	-12	634	159	1084	5.13	0.61	1.0000 
	1	3	-12	872	146	1357	4.87	0.36	1.0000 
	-1	-3	-12	727	203	1177	4.83	0.92	1.0000 
	3	-1	-12	526	167	941	5.13	0.61	1.0000 
	-1	-3	12	814	174	1285	4.87	-0.36	1.0000 
	-2	-3	-12	74	103	56	0.68	1.01	1.0000 
	2	3	-12	118	54	95	0.7	0.57	1.0000 
	3	-2	-12	6	78	-22	0.51	1.54	1.0000 
	-2	-3	12	2	83	-2	0.7	-0.57	1.0000 
	-3	2	-12	3	66	-58	0.48	1.11	1.0000 
	3	-2	-12	6	46	-17	0.51	1.54	1.0000 
	3	-3	-12	2457	304	3102	-4.09	1.12	1.0000 
	3	-3	-12	2502	230	3152	-4.09	1.12	1.0000 
	3	3	12	2729	213	3468	-4.43	-1.82	1.0000 
	-3	-3	-12	3060	333	3841	-4.43	1.82	1.0000 
	-3	-3	12	2284	263	2924	-4.2	-1.36	1.0000 
	3	3	-12	2972	326	3697	-4.2	1.36	1.0000 
	3	3	-12	2868	237	3581	-4.2	1.36	1.0000 
	-4	-3	-12	1101	145	1112	-0.11	1.66	1.0000 
	4	3	-12	1105	225	1144	0.22	1.33	1.0000 
	4	3	-12	945	138	980	0.22	1.33	1.0000 
	3	-4	-12	899	124	929	0.34	-0.19	1.0000 
	4	3	12	1281	146	1293	-0.11	-1.66	1.0000 
	-4	-3	12	894	192	928	0.22	-1.33	1.0000 
	-4	-3	-12	1350	220	1362	-0.11	1.66	1.0000 
	3	-4	12	1024	113	1034	0.13	0.32	1.0000 
	3	-4	-12	1140	213	1173	0.34	-0.19	1.0000 
	4	2	-12	7227	443	6598	-2.59	1.08	1.0000 
	2	-4	12	6132	295	5676	-2.03	-0.86	1.0000 
	2	-4	-12	6231	290	5788	-1.93	0.46	1.0000 
	-4	-2	-12	5852	400	5253	-2.77	1.4	1.0000 
	2	-4	-12	6429	432	5978	-1.93	0.46	1.0000 
	4	2	-12	6607	359	6006	-2.59	1.08	1.0000 
	-4	-2	-12	6212	288	5595	-2.77	1.4	1.0000 
	4	1	-12	22314	1021	21869	1.08	-1.21	1.0000 
	1	-4	-12	24220	1033	23716	1.05	0.62	1.0000 
	4	1	-12	22960	969	22509	1.08	-1.21	1.0000 
	1	-4	12	23198	848	22656	1.19	-0.07	1.0000 
	-4	-1	-12	23162	1010	22739	0.98	-0.68	1.0000 
	4	0	-12	29703	1247	30363	1.36	-1.38	1.0000 
	4	0	-12	29427	1270	30084	1.36	-1.38	1.0000 
	0	-4	12	29207	1100	29959	1.56	1.67	1.0000 
	0	4	-12	29063	1128	29814	1.56	-1.67	1.0000 
	0	-4	-12	30253	1291	30945	1.38	-0.91	1.0000 
	-4	0	-12	29032	1253	29651	1.28	-1.27	1.0000 
	1	4	-12	23507	894	22958	1.28	-1.21	1.0000 
	-1	-4	12	22836	910	22295	1.28	1.21	1.0000 
	4	-1	-12	24150	1036	23569	1.23	0.4	1.0000 
	4	-1	-12	24082	1018	23502	1.23	0.4	1.0000 
	-1	-4	-12	25261	1073	24752	1.11	-0.55	1.0000 
	-2	-4	-12	6416	423	5798	-2.74	1.62	1.0000 
	4	-2	-12	6256	411	5792	-2.03	0.56	1.0000 
	-2	-4	12	6226	357	5641	-2.6	-1.06	1.0000 
	2	4	-12	6244	293	5658	-2.6	1.06	1.0000 
	4	-2	-12	5601	350	5162	-2.03	0.56	1.0000 
	3	4	-12	1063	118	1092	0.12	1.38	1.0000 
	4	-3	-12	961	200	961	0.01	-0.17	1.0000 
	-3	-4	-12	1033	207	1049	-0.07	1.77	1.0000 
	-3	-4	12	1062	202	1091	0.12	-1.38	1.0000 
	4	-3	-12	1149	164	1149	0.01	-0.17	1.0000 
	-4	-4	-12	8376	416	7590	2.85	1.21	1.0000 
	4	4	-12	9035	410	8113	3.3	0.45	1.0000 
	4	4	-12	8865	551	7952	3.3	0.45	1.0000 
	4	-4	-12	9950	559	9077	3.04	-0.46	1.0000 
	-4	-4	-12	9034	538	8217	2.85	1.21	1.0000 
	-4	-4	12	9938	512	8970	3.3	-0.45	1.0000 
	4	-4	-12	9293	455	8450	3.04	-0.46	1.0000 
	4	-5	-12	21042	1012	20067	-2.23	-0.71	1.0000 
	-5	-4	12	22247	939	21438	-1.81	0.31	1.0000 
	-5	-4	-12	22019	836	21064	-2.19	0.19	1.0000 
	5	4	-12	20912	1050	20128	-1.81	-0.31	1.0000 
	5	4	-12	22616	882	21800	-1.81	-0.31	1.0000 
	-5	-4	-12	22090	1008	21133	-2.19	0.19	1.0000 
	3	-5	12	3265	205	3327	-0.42	-1.03	1.0000 
	-5	-3	-12	3422	219	3376	0.27	-0.06	1.0000 
	-5	-3	-12	3224	323	3180	0.27	-0.06	1.0000 
	5	3	-12	3076	241	2997	0.52	-0.56	1.0000 
	5	3	-12	2920	333	2843	0.52	-0.56	1.0000 
	3	-5	-12	2993	338	3034	-0.32	1.49	1.0000 
	-5	-3	12	2857	307	2780	0.52	0.56	1.0000 
	5	3	12	3245	251	3201	0.27	0.06	1.0000 
	5	2	-12	6185	385	6166	0.04	0.91	1.0000 
	2	-5	-12	6363	455	6335	0.17	-0.79	1.0000 
	5	2	-12	5928	445	5909	0.04	0.91	1.0000 
	5	2	12	5996	381	6056	-0.31	-1	1.0000 
	-5	-2	-12	6179	442	6240	-0.31	1	1.0000 
	2	-5	12	5964	319	5908	0.33	1.21	1.0000 
	-5	-2	-12	5848	289	5907	-0.31	1	1.0000 
	1	-5	12	30421	1095	30384	-0.04	0.55	1.0000 
	1	-5	-12	30670	1298	30537	-0.24	-0.23	1.0000 
	5	1	-12	29055	1239	29154	0.24	-0.81	1.0000 
	5	1	-12	29663	1315	29763	0.24	-0.81	1.0000 
	0	-5	12	54453	1832	53572	1.35	1.3	1.0000 
	0	-5	-12	51392	2076	50542	1.35	-1.45	1.0000 
	5	0	-12	56962	2065	55978	1.47	-1.35	1.0000 
	5	0	-12	53951	2107	52994	1.47	-1.35	1.0000 
	5	-1	-12	29368	1264	29235	-0.25	-0.14	1.0000 
	5	-1	-12	29576	1269	29442	-0.25	-0.14	1.0000 
	-1	-5	12	28999	1120	29012	0.08	0.82	1.0000 
	-1	-5	-12	30310	1296	30382	0.15	-0.17	1.0000 
	-2	-5	-12	5931	450	5966	-0.22	1.68	1.0000 
	5	-2	-12	6680	460	6667	0.13	-1.06	1.0000 
	-2	-5	12	5492	379	5496	-0.05	-0.6	1.0000 
	5	-2	-12	6351	416	6338	0.13	-1.06	1.0000 
	-3	-5	-12	2793	256	2746	0.3	-0.05	1.0000 
	5	-3	-12	3283	283	3334	-0.37	1.39	1.0000 
	-3	-5	12	3020	283	2931	0.57	0.25	1.0000 
	-3	-5	-12	3146	321	3096	0.3	-0.05	1.0000 
	5	-3	-12	3286	331	3337	-0.37	1.39	1.0000 
	-4	-5	-12	21037	864	20199	-1.94	-0.11	1.0000 
	-4	-5	12	21883	931	21092	-1.81	-0.12	1.0000 
	5	-4	-12	22493	950	21457	-2.31	-0.44	1.0000 
	5	-4	-12	22108	1031	21081	-2.31	-0.44	1.0000 
	-4	-5	-12	22416	1030	21551	-1.94	-0.11	1.0000 
	-5	-5	12	27793	1167	28442	-1.31	-0.17	1.0000 
	5	5	-12	25281	1307	25901	-1.31	0.17	1.0000 
	-5	-5	-12	27237	1079	27941	-1.38	-0.55	1.0000 
	-5	-5	-12	26936	1256	27636	-1.38	-0.55	1.0000 
	5	-5	-12	28380	1181	28620	-0.06	-4.42	1.0000 
	5	-5	-12	26744	1275	26975	-0.06	-4.42	1.0000 
	-6	-5	-12	14142	848	14916	2.25	-1.4	1.0000 
	6	5	-12	16358	944	17250	2.41	-1.47	1.0000 
	-6	-5	12	14942	805	15795	2.41	1.47	1.0000 
	5	-6	-12	14389	860	15163	2.18	-0.62	1.0000 
	-6	-5	-12	15423	707	16231	2.25	-1.4	1.0000 
	-6	-4	12	14535	781	15567	-2.82	-0.09	1.0000 
	6	4	-12	15139	899	16192	-2.82	0.09	1.0000 
	-6	-4	-12	14896	853	15962	-2.84	-0.44	1.0000 
	-6	-4	-12	14747	669	15808	-2.84	-0.44	1.0000 
	4	-6	-12	14044	856	15306	-3.5	0.24	1.0000 
	6	3	12	1545	190	1414	-1.11	0.44	1.0000 
	-6	-3	12	1164	232	1081	-0.79	0.48	1.0000 
	6	3	-12	1066	236	987	-0.79	-0.48	1.0000 
	3	-6	-12	1304	241	1165	-1.46	1.02	1.0000 
	2	-6	-12	2930	350	3135	1.3	-0.99	1.0000 
	6	2	-12	2843	352	3104	1.65	-0.88	1.0000 
	2	-6	12	2831	224	3034	1.31	1.17	1.0000 
	6	2	12	2802	272	3000	1.28	0.89	1.0000 
	1	-6	-12	10261	628	10696	-1.37	-0.6	1.0000 
	6	1	12	9938	591	10302	-1.23	-0.16	1.0000 
	1	-6	12	10343	505	10772	-1.3	0.96	1.0000 
	6	1	-12	9841	634	10178	-1.14	0.11	1.0000 
	0	-6	12	30428	1091	29610	-1.6	-0.32	1.0000 
	0	-6	-12	26874	1237	26099	-1.66	0.89	1.0000 
	6	0	-12	29591	1277	28811	-1.57	0.54	1.0000 
	-1	-6	-12	9936	634	10277	-1.18	0.48	1.0000 
	-1	-6	12	10853	553	11247	-1.24	0.19	1.0000 
	6	-1	-12	10270	629	10713	-1.4	-0.55	1.0000 
	-2	-6	-12	2879	340	3101	1.39	-0.69	1.0000 
	6	-2	-12	3008	347	3202	1.22	-1.03	1.0000 
	6	-2	-12	2854	300	3043	1.22	-1.03	1.0000 
	-2	-6	12	3061	296	3309	1.52	1	1.0000 
	6	-3	-12	1506	211	1339	-1.6	0.85	1.0000 
	6	-3	-12	1204	235	1055	-1.6	0.85	1.0000 
	-3	-6	-12	756	191	662	-1.15	-0.34	1.0000 
	-3	-6	12	680	182	612	-0.85	0.55	1.0000 
	-3	-6	-12	750	165	657	-1.15	-0.34	1.0000 
	-4	-6	-12	15836	752	16950	-2.89	-0.32	1.0000 
	6	-4	-12	13624	788	14894	-3.57	0.26	1.0000 
	6	-4	-12	15069	869	16403	-3.57	0.26	1.0000 
	-4	-6	-12	14199	849	15255	-2.89	-0.32	1.0000 
	-4	-6	12	14585	769	15616	-2.8	0.12	1.0000 
	6	-5	-12	14577	874	15435	2.39	-0.58	1.0000 
	5	6	-12	15961	929	16802	2.29	-1.16	1.0000 
	-5	-6	12	14796	788	15606	2.29	1.16	1.0000 
	-5	-6	-12	14331	848	15201	2.53	-1.8	1.0000 
	-5	-6	-12	14912	734	15800	2.53	-1.8	1.0000 
	6	-5	-12	14986	794	15856	2.39	-0.58	1.0000 
	6	6	-12	11682	729	10609	3.6	-2.21	1.0000 
	-6	-6	-12	11621	671	10570	3.48	-1.63	1.0000 
	-6	-6	12	12324	647	11222	3.6	2.21	1.0000 
	6	-6	-12	11563	693	10440	3.64	-0.71	1.0000 
	-6	-6	-12	11505	552	10459	3.48	-1.63	1.0000 
	-7	-6	-12	3094	265	3196	0.61	-0.09	1.0000 
	-7	-6	12	2412	347	2496	0.58	0.19	1.0000 
	7	6	-12	2392	397	2476	0.58	-0.19	1.0000 
	6	-7	-12	3563	414	3603	0.28	-1.03	1.0000 
	7	5	-12	1559	293	1348	2.03	-1.28	1.0000 
	-7	-5	12	1693	277	1473	2.03	1.28	1.0000 
	5	-7	-12	1823	291	1677	1.04	1.63	1.0000 
	4	-7	-12	2740	339	2638	-0.63	-0.39	1.0000 
	7	4	-12	2008	330	1948	-0.44	-0.28	1.0000 
	-7	-4	12	2654	328	2585	-0.44	0.28	1.0000 
	3	-7	-12	7	123	0	-0.99	-1.52	1.0000 
	7	3	-12	130	135	100	-0.91	0.29	1.0000 
	-7	-3	12	44	127	27	-0.91	-0.29	1.0000 
	7	3	12	49	65	26	-1.33	0.17	1.0000 
	2	-7	12	2877	247	2895	-0.12	-0.79	1.0000 
	7	2	-12	3197	373	3219	-0.09	-0.97	1.0000 
	7	2	12	2762	288	2808	-0.25	1.02	1.0000 
	2	-7	-12	3657	357	3674	-0.1	0.63	1.0000 
	1	-7	12	3507	261	3247	-1.52	-0.3	1.0000 
	7	1	-12	3764	347	3410	-1.99	0.17	1.0000 
	1	-7	-12	2795	318	2562	-1.53	0.41	1.0000 
	7	1	12	3831	324	3491	-1.87	0.15	1.0000 
	7	0	-12	14457	854	15291	-2.29	0.22	1.0000 
	0	-7	-12	14775	830	15626	-2.33	0.7	1.0000 
	7	0	12	14957	838	15833	-2.37	-0.28	1.0000 
	0	-7	12	15022	711	15910	-2.38	0.13	1.0000 
	7	-1	-12	3211	330	2973	-1.46	0.42	1.0000 
	-1	-7	12	4317	311	3935	-1.98	0.08	1.0000 
	-1	-7	-12	4324	371	3950	-1.96	0.22	1.0000 
	-2	-7	-12	3343	315	3362	-0.06	-1.11	1.0000 
	-2	-7	12	2953	310	2992	-0.2	0.9	1.0000 
	-2	-7	-12	3758	361	3778	-0.06	-1.11	1.0000 
	7	-2	-12	3224	337	3239	-0.1	0.73	1.0000 
	7	-3	-12	202	121	189	-1.13	-1.88	1.0000 
	-3	-7	12	170	140	128	-1.18	0.04	1.0000 
	-3	-7	-12	124	100	93	-1.02	0	1.0000 
	-3	-7	-12	152	137	117	-1.02	0	1.0000 
	-4	-7	12	2175	299	2100	-0.52	0.5	1.0000 
	-4	-7	-12	2446	333	2355	-0.59	-0.47	1.0000 
	7	-4	-12	2424	292	2318	-0.69	-0.67	1.0000 
	-4	-7	-12	2930	304	2830	-0.59	-0.47	1.0000 
	7	-4	-12	2927	363	2811	-0.69	-0.67	1.0000 
	-5	-7	-12	1947	288	1704	2.02	-0.83	1.0000 
	7	-5	-12	1876	305	1714	1.16	1.56	1.0000 
	-5	-7	-12	1815	236	1580	2.02	-0.83	1.0000 
	-5	-7	12	1575	263	1364	1.96	0.87	1.0000 
	7	-5	-12	1656	242	1504	1.16	1.56	1.0000 
	7	-6	-12	2634	379	2685	0.38	-0.91	1.0000 
	-6	-7	-12	2995	375	3092	0.59	-0.04	1.0000 
	-6	-7	-12	2764	272	2858	0.59	-0.04	1.0000 
	-6	-7	12	2715	351	2795	0.53	0.37	1.0000 
	6	7	-12	2446	378	2522	0.53	-0.37	1.0000 
	7	-7	-12	624	217	526	1.4	-0.5	1.0000 
	-7	-7	-12	811	169	740	0.88	-0.38	1.0000 
	-7	-7	12	477	188	428	0.78	0.27	1.0000 
	7	7	-12	452	186	405	0.78	-0.27	1.0000 
	7	-8	-12	0	134	-22	0.36	0.28	1.0000 
	8	7	-12	23	114	19	0.37	-0.67	1.0000 
	-8	-7	12	98	142	92	0.37	0.67	1.0000 
	-8	-6	12	237	164	155	-1.91	0.59	1.0000 
	8	6	-12	220	145	141	-1.91	-0.59	1.0000 
	6	-8	-12	334	153	224	-2.12	-0.96	1.0000 
	8	5	-12	943	269	992	-0.55	0.24	1.0000 
	-8	-5	12	725	218	768	-0.55	-0.24	1.0000 
	5	-8	-12	762	235	809	-0.65	1.32	1.0000 
	-8	-4	12	11	100	-72	2.16	0.51	1.0000 
	4	-8	-12	13	110	-47	2.37	0.32	1.0000 
	8	3	-12	7	95	-138	1.2	-1.23	1.0000 
	3	-8	-12	41	135	89	1.64	-2.28	1.0000 
	8	3	12	5	52	-50	1.01	1.12	1.0000 
	8	2	-12	120	155	190	-1.87	-0.35	1.0000 
	8	2	12	11	79	-8	-2.2	0.22	1.0000 
	2	-8	12	96	99	169	-2.16	-0.13	1.0000 
	2	-8	-12	142	143	233	-2.26	0.33	1.0000 
	1	-8	12	1869	221	1663	-1.75	-1.8	1.0000 
	8	1	12	1838	259	1636	-1.65	-0.6	1.0000 
	1	-8	-12	1768	265	1558	-1.82	1.6	1.0000 
	8	1	-12	2115	307	1903	-1.62	0.69	1.0000 
	0	-8	12	178	108	156	0.39	-1.54	1.0000 
	0	-8	-12	294	150	265	0.46	1.07	1.0000 
	8	0	12	118	117	98	0.45	-1.44	1.0000 
	8	0	-12	382	161	349	0.44	1.22	1.0000 
	8	-1	-12	2057	292	1835	-1.79	1.66	1.0000 
	-1	-8	-12	2129	291	1910	-1.66	0.67	1.0000 
	8	-1	12	2310	324	2088	-1.71	-1.89	1.0000 
	-1	-8	12	1631	235	1431	-1.75	-0.76	1.0000 
	8	-2	-12	163	145	257	-2.2	0.24	1.0000 
	-2	-8	-12	217	169	312	-1.94	-0.25	1.0000 
	-2	-8	-12	80	120	141	-1.94	-0.25	1.0000 
	-2	-8	12	68	127	130	-2.09	0.3	1.0000 
	-3	-8	-12	121	104	163	1.25	-1.51	1.0000 
	-3	-8	-12	14	119	25	1.25	-1.51	1.0000 
	-3	-8	12	55	138	73	1.36	1.12	1.0000 
	8	-3	-12	37	119	84	1.73	-2.29	1.0000 
	-4	-8	-12	11	86	-72	2.1	-0.63	1.0000 
	-4	-8	12	11	132	-32	2.21	0.44	1.0000 
	-4	-8	-12	113	146	64	2.1	-0.63	1.0000 
	8	-4	-12	99	111	82	2.15	0.29	1.0000 
	8	-5	-12	788	210	850	-0.81	1.24	1.0000 
	-5	-8	-12	1138	221	1195	-0.58	0.29	1.0000 
	-5	-8	12	774	230	838	-0.79	-0.43	1.0000 
	8	-5	-12	475	207	522	-0.81	1.24	1.0000 
	-5	-8	-12	638	193	681	-0.58	0.29	1.0000 
	-6	-8	-12	73	102	31	-1.88	-0.96	1.0000 
	-6	-8	-12	154	153	89	-1.88	-0.96	1.0000 
	-6	-8	12	223	149	138	-2.06	0.66	1.0000 
	8	-6	-12	242	157	151	-2.09	-0.83	1.0000 
	-7	-8	12	133	138	136	0.35	1.33	1.0000 
	-7	-8	-12	1	77	-17	0.45	-0.54	1.0000 
	7	8	-12	4	104	-10	0.35	-1.33	1.0000 
	8	-7	-12	1	120	-43	0.36	0.42	1.0000 
	-8	-8	12	0	111	-4	0.03	-0.45	1.0000 
	8	-8	-12	134	123	127	0.51	-0.65	1.0000 
	8	8	-12	64	115	63	0.03	0.45	1.0000 
	9	8	-12	803	230	669	-2.2	1.9	1.0000 
	-9	-8	12	330	152	242	-2.2	-1.9	1.0000 
	8	-9	-12	472	153	352	-2.12	-2.82	1.0000 
	9	7	-12	407	146	314	-1.57	-0.75	1.0000 
	-9	-7	12	529	145	422	-1.57	0.75	1.0000 
	7	-9	-12	414	147	328	-1.34	-2.31	1.0000 
	-9	-6	12	4391	463	4440	-0.04	1.76	1.0000 
	6	-9	-12	4038	462	4077	-0.09	-1.06	1.0000 
	9	6	-12	3256	472	3298	-0.04	-1.76	1.0000 
	5	-9	-12	9546	667	9675	0.3	1.48	1.0000 
	-9	-5	12	8577	585	8750	0.62	-0.03	1.0000 
	9	5	-12	7254	648	7413	0.62	0.03	1.0000 
	9	4	-12	6052	538	5723	1.4	0.41	1.0000 
	4	-9	-12	5082	459	4693	1.71	2.09	1.0000 
	-9	-4	12	5052	425	4752	1.4	-0.41	1.0000 
	9	3	-12	1504	306	1525	0.17	0.31	1.0000 
	3	-9	-12	1645	294	1760	0.94	-0.15	1.0000 
	9	3	12	2315	305	2347	0.22	0.01	1.0000 
	2	-9	-12	181	141	118	-1.56	-1.4	1.0000 
	9	2	-12	546	186	456	-1.27	-0.63	1.0000 
	2	-9	12	443	128	333	-1.77	1.06	1.0000 
	9	2	12	157	89	106	-1.4	0.77	1.0000 
	9	1	12	7638	562	7809	-0.67	-0.32	1.0000 
	9	1	-12	6938	585	7120	-0.74	0.18	1.0000 
	1	-9	12	7375	468	7714	-1.36	-0.8	1.0000 
	1	-9	-12	7107	544	7391	-1.16	0.53	1.0000 
	0	-9	12	7010	471	7132	0.2	-2.53	1.0000 
	9	0	12	8363	591	8518	0.21	-2.93	1.0000 
	0	-9	-12	7341	542	7500	0.28	2.86	1.0000 
	9	0	-12	6413	556	6529	0.19	2.55	1.0000 
	9	-1	-12	7181	580	7489	-1.24	0.5	1.0000 
	-1	-9	-12	8169	572	8353	-0.68	0.12	1.0000 
	9	-1	12	7296	584	7623	-1.33	-0.88	1.0000 
	-1	-9	-12	6700	503	6866	-0.68	0.12	1.0000 
	-1	-9	12	7020	483	7203	-0.75	-0.37	1.0000 
	-2	-9	12	377	161	298	-1.4	0.34	1.0000 
	9	-2	12	280	156	201	-1.59	1.09	1.0000 
	9	-2	-12	68	130	29	-1.72	-1.15	1.0000 
	-2	-9	-12	440	182	358	-1.26	-1.06	1.0000 
	-2	-9	-12	343	142	271	-1.26	-1.06	1.0000 
	-3	-9	-12	1544	284	1553	0.08	-0.11	1.0000 
	9	-3	-12	2143	326	2241	0.71	-0.08	1.0000 
	-3	-9	12	1628	289	1671	0.34	-0.21	1.0000 
	-3	-9	-12	1674	287	1683	0.08	-0.11	1.0000 
	-4	-9	-12	5646	424	5399	1.12	-0.01	1.0000 
	-4	-9	12	5183	435	4906	1.28	-0.31	1.0000 
	9	-4	-12	5167	453	4887	1.21	1.5	1.0000 
	-4	-9	-12	5319	467	5079	1.12	-0.01	1.0000 
	-5	-9	-12	8633	570	8817	0.67	-0.16	1.0000 
	-5	-9	12	8271	582	8425	0.57	0.06	1.0000 
	9	-5	-12	8330	613	8418	0.21	1.18	1.0000 
	-5	-9	-12	8066	598	8244	0.67	-0.16	1.0000 
	-6	-9	-12	3902	354	3929	0.07	-1.85	1.0000 
	-6	-9	-12	3940	407	3967	0.07	-1.85	1.0000 
	-6	-9	12	3558	426	3599	-0.05	1.55	1.0000 
	9	-6	-12	5206	502	5221	0.01	-0.73	1.0000 
	-7	-9	12	545	214	424	-1.76	0.9	1.0000 
	9	-7	-12	175	171	112	-1.52	-2.16	1.0000 
	-7	-9	-12	526	141	417	-1.63	-0.56	1.0000 
	-8	-9	12	669	206	532	-2.14	-1.17	1.0000 
	9	-8	-12	478	184	365	-1.99	-2.86	1.0000 
	9	9	-12	2202	405	2203	-0.12	1.01	1.0000 
	-9	-9	12	1867	330	1868	-0.12	-1.01	1.0000 
	9	-9	-12	2156	381	2193	-0.2	-0.43	1.0000 
	9	-10	-12	3050	457	3202	0.81	0.78	1.0000 
	10	9	-12	3378	524	3531	0.93	-0.49	1.0000 
	8	-10	-12	799	195	811	0.01	-1.11	1.0000 
	-10	-8	12	511	191	491	0.4	0.75	1.0000 
	10	8	-12	1145	294	1115	0.4	-0.75	1.0000 
	10	7	-12	1139	326	1262	-1.25	0.73	1.0000 
	7	-10	-12	389	184	438	-0.69	-1.04	1.0000 
	-10	-7	12	1156	266	1280	-1.25	-0.73	1.0000 
	10	6	-12	5331	554	5386	-0.07	2.53	1.0000 
	-10	-6	12	5568	474	5624	-0.07	-2.53	1.0000 
	6	-10	-12	6968	570	7099	0.48	0.43	1.0000 
	-10	-5	12	8431	581	8128	1.16	0.42	1.0000 
	5	-10	-12	8868	641	8502	1.34	-0.19	1.0000 
	10	5	-12	8776	700	8467	1.16	-0.42	1.0000 
	4	-10	-12	4732	442	4845	0.59	-0.38	1.0000 
	10	4	-12	4716	543	4734	0.11	-0.21	1.0000 
	10	3	-12	562	236	653	-1.33	1.13	1.0000 
	3	-10	-12	906	242	972	-0.8	0.97	1.0000 
	10	3	12	1314	269	1461	-1.39	-0.71	1.0000 
	10	2	-12	923	266	887	0.62	-1.64	1.0000 
	2	-10	-12	1099	239	988	1.11	0.47	1.0000 
	10	2	12	850	222	814	0.64	1.67	1.0000 
	1	-10	12	7883	486	7821	-0.2	0.39	1.0000 
	10	1	12	7530	579	7565	0.16	0.25	1.0000 
	1	-10	-12	6969	534	6984	0.1	-0.45	1.0000 
	10	1	-12	6373	584	6419	0.2	-0.11	1.0000 
	0	-10	12	10030	603	10830	-2.7	-0.73	1.0000 
	10	0	-12	9077	725	9813	-2.65	1.15	1.0000 
	0	-10	-12	8688	632	9415	-2.68	1.23	1.0000 
	0	-10	-12	9233	661	9982	-2.68	1.23	1.0000 
	10	0	12	9040	704	9785	-2.69	-1.19	1.0000 
	-1	-10	-12	8116	552	8138	0.1	-0.18	1.0000 
	-1	-10	-12	6858	538	6878	0.1	-0.18	1.0000 
	10	-1	-12	7370	598	7337	-0.08	-0.58	1.0000 
	10	-1	12	7377	596	7315	-0.23	0.13	1.0000 
	-1	-10	12	6741	493	6777	0.18	0.37	1.0000 
	-2	-10	-12	631	188	603	0.6	-1.72	1.0000 
	-2	-10	12	450	171	420	0.66	1.54	1.0000 
	10	-2	12	1061	247	949	1.16	-0.25	1.0000 
	-2	-10	-12	818	219	787	0.6	-1.72	1.0000 
	10	-2	-12	904	235	823	0.88	0.45	1.0000 
	10	-3	-12	922	252	1015	-1.09	0.95	1.0000 
	-3	-10	-12	737	196	847	-1.38	0.68	1.0000 
	-3	-10	12	679	228	788	-1.46	-1.35	1.0000 
	10	-3	12	892	273	948	-0.7	-1.08	1.0000 
	-4	-10	12	4847	438	4824	-0.27	-1.27	1.0000 
	10	-4	-12	4491	460	4564	0.4	-0.32	1.0000 
	-4	-10	-12	4793	414	4769	-0.06	-0.48	1.0000 
	10	-4	12	4992	537	5112	0.58	0.08	1.0000 
	10	-5	-12	8856	640	8535	1.18	-0.24	1.0000 
	-5	-10	12	9321	615	8974	1.27	0.5	1.0000 
	-5	-10	-12	8145	561	7864	1.08	-0.21	1.0000 
	-6	-10	-12	5737	461	5809	-0.01	2.58	1.0000 
	-6	-10	12	6023	521	6086	0.16	-1	1.0000 
	10	-7	-12	953	295	1049	-0.87	-1.14	1.0000 
	-7	-10	-12	658	166	754	-1.28	0.72	1.0000 
	-7	-10	12	446	197	523	-1.23	-0.54	1.0000 
	-8	-10	12	1130	272	1087	0.54	0.82	1.0000 
	10	-8	-12	612	243	626	-0.04	-1.14	1.0000 
	10	-9	-12	2017	392	2160	0.96	0.74	1.0000 
	8	-11	-12	390	161	522	1.96	0.78	1.0000 
	-11	-7	12	1222	262	1277	0.51	-0.18	1.0000 
	7	-11	-12	947	254	986	0.36	0.72	1.0000 
	11	7	-12	1037	298	1088	0.51	0.18	1.0000 
	6	-11	-12	5082	474	5053	0.13	0.08	1.0000 
	-11	-6	12	5369	466	5393	-0.25	-1.92	1.0000 
	11	6	-12	4453	567	4474	-0.25	1.92	1.0000 
	11	5	-12	6599	618	6462	-0.64	0.69	1.0000 
	5	-11	-12	7359	575	7249	-0.35	-0.94	1.0000 
	11	4	-12	4243	544	4266	-0.19	0.73	1.0000 
	4	-11	-12	4495	413	4434	0.37	-0.63	1.0000 
	11	3	-12	668	246	743	0.96	-0.17	1.0000 
	3	-11	-12	524	196	609	1.17	0.29	1.0000 
	11	3	12	680	197	759	1.02	0.35	1.0000 
	11	2	-12	559	228	595	0.49	0.08	1.0000 
	11	2	12	779	219	813	0.38	-0.23	1.0000 
	11	1	12	6290	544	6500	-0.9	-0.3	1.0000 
	1	-11	-12	6877	557	7181	-1.2	-0.11	1.0000 
	11	1	-12	5899	580	6087	-0.85	0.39	1.0000 
	1	-11	12	5755	450	6007	-1.11	-0.1	1.0000 
	0	-11	-12	9450	615	8745	-2.28	-2.77	1.0000 
	0	-11	12	8711	550	8066	-2.21	1.89	1.0000 
	11	0	12	10494	701	9768	-2.25	2.12	1.0000 
	11	0	-12	8918	680	8244	-2.26	-2.27	1.0000 
	-1	-11	12	5485	452	5684	-0.92	-0.34	1.0000 
	-1	-11	-12	4490	440	4665	-0.89	0.35	1.0000 
	11	-1	-12	6141	574	6424	-1.19	-0.09	1.0000 
	11	-1	12	5446	542	5726	-1.26	-0.1	1.0000 
	-2	-11	12	841	213	882	0.47	0.07	1.0000 
	11	-2	-12	1102	296	1163	0.37	1.76	1.0000 
	11	-2	12	875	265	924	0.38	-1.39	1.0000 
	-2	-11	-12	877	221	909	0.31	0.48	1.0000 
	11	-3	12	611	262	708	1.2	-0.6	1.0000 
	-3	-11	-12	541	178	606	0.94	-0.31	1.0000 
	-3	-11	12	706	218	782	0.96	0.2	1.0000 
	11	-3	-12	541	201	625	1.1	0.53	1.0000 
	11	-4	-12	4224	499	4133	0.45	0.23	1.0000 
	-4	-11	12	4278	463	4280	-0.1	-1.04	1.0000 
	-4	-11	-12	4841	431	4838	-0.06	0.81	1.0000 
	11	-4	12	5042	587	4997	0.22	0.12	1.0000 
	11	-5	-12	7057	592	6922	-0.44	-1.12	1.0000 
	-5	-11	12	7022	546	6838	-0.8	-0.55	1.0000 
	11	-5	12	6699	662	6626	-0.22	0.82	1.0000 
	-5	-11	-12	7330	527	7130	-0.85	0.63	1.0000 
	-6	-11	-12	5138	438	5193	-0.39	1.76	1.0000 
	-6	-11	12	4706	521	4766	-0.42	-1.65	1.0000 
	11	-6	12	5756	678	5690	0.26	-0.29	1.0000 
	-7	-11	12	961	242	1017	0.56	-0.42	1.0000 
	-7	-11	-12	1014	218	1065	0.5	0.41	1.0000 
	11	-7	-12	833	272	858	0.24	0.56	1.0000 
	-8	-11	-12	171	120	273	2.37	-1.81	1.0000 
	12	6	-12	496	210	634	2.03	-0.8	1.0000 
	12	5	-12	1175	342	1316	-1.41	0.93	1.0000 
	12	4	-12	768	222	565	-2.71	0.53	1.0000 
	3	-12	-12	387	181	399	-0.16	-0.42	1.0000 
	12	3	-12	189	156	206	-0.25	-1.04	1.0000 
	12	3	12	147	88	163	-0.24	1.28	1.0000 
	12	2	12	144	79	164	-0.6	-0.39	1.0000 
	2	-12	-12	11	115	23	-0.91	-0.49	1.0000 
	12	2	-12	29	119	40	-0.74	0.53	1.0000 
	12	1	12	1056	249	1020	-0.46	-0.71	1.0000 
	1	-12	-12	1154	260	1079	-0.78	0.29	1.0000 
	12	1	-12	981	271	939	-0.48	0.23	1.0000 
	0	-12	-12	1182	241	1097	0.94	-0.76	1.0000 
	12	0	-12	756	219	687	0.94	-0.61	1.0000 
	0	-12	12	1035	217	946	0.98	0.26	1.0000 
	12	0	12	746	197	676	0.92	0.38	1.0000 
	12	-1	-12	1198	317	1137	-0.67	0.58	1.0000 
	12	-1	12	771	256	726	-0.57	-0.16	1.0000 
	-1	-12	12	872	204	842	-0.41	-0.57	1.0000 
	-1	-12	-12	1047	227	1007	-0.45	0.32	1.0000 
	12	-2	-12	155	156	188	-0.81	-0.26	1.0000 
	-2	-12	12	1	115	-14	-0.62	-0.39	1.0000 
	-2	-12	-12	2	84	5	-0.69	0.61	1.0000 
	12	-2	12	242	144	286	-0.87	0.28	1.0000 
	-3	-12	-12	44	110	49	-0.18	-0.83	1.0000 
	-3	-12	12	57	141	67	-0.3	1.32	1.0000 
	12	-3	12	171	134	180	-0.19	0.35	1.0000 
	12	-3	-12	211	145	221	-0.18	-0.38	1.0000 
	12	-4	-12	1087	270	857	-2.48	-0.03	1.0000 
	-4	-12	-12	635	139	453	-2.7	0.7	1.0000 
	12	-4	12	1406	314	1132	-2.59	-0.05	1.0000 
	-4	-12	12	794	192	590	-2.55	0.67	1.0000 
	-5	-12	12	753	244	884	-1.6	-0.81	1.0000 
	12	-5	-12	856	281	1006	-1.6	-0.5	1.0000 
	12	-5	12	1042	347	1198	-1.59	-0.2	1.0000 
	-5	-12	-12	845	214	980	-1.56	0.64	1.0000 
	-6	-12	12	611	235	766	1.93	-0.5	1.0000 
	-6	-12	-12	621	196	774	2.03	-1.01	1.0000 
	-7	-12	-12	12	84	-64	2.27	-0.28	1.0000 
	3	-13	-12	325	173	430	-1.81	0.29	1.0000 
	13	3	-12	121	135	178	-1.56	-0.17	1.0000 
	13	2	12	97	91	92	0.3	0.49	1.0000 
	2	-13	-12	85	120	81	0.33	-0.6	1.0000 
	13	2	-12	0	81	-55	-0.06	-0.03	1.0000 
	13	1	-12	325	166	351	0.52	-0.61	1.0000 
	1	-13	-12	312	169	330	0.32	0.12	1.0000 
	13	1	12	159	90	178	0.55	0.45	1.0000 
	13	0	-12	2	112	-24	0.62	0.56	1.0000 
	0	-13	12	388	155	352	0.57	-0.58	1.0000 
	13	0	12	9	121	4	0.6	-0.41	1.0000 
	0	-13	-12	78	96	63	0.55	0.45	1.0000 
	-1	-13	-12	7	113	10	0.47	-0.62	1.0000 
	-1	-13	12	38	114	48	0.62	0.59	1.0000 
	13	-1	-12	26	124	33	0.4	0.29	1.0000 
	13	-1	12	0	83	-38	0.42	0.11	1.0000 
	13	-2	-12	1	96	-133	0.32	-0.62	1.0000 
	13	-2	12	77	99	72	0.25	0.29	1.0000 
	-2	-13	12	150	121	149	0.19	0.64	1.0000 
	-2	-13	-12	0	84	-25	0.05	-0.09	1.0000 
	-3	-13	12	33	143	68	-1.67	0.15	1.0000 
	-3	-13	-12	226	131	296	-1.45	0.21	1.0000 
	13	-3	-12	7	104	-21	-1.74	0.11	1.0000 
	13	-3	12	439	210	566	-1.9	-0.19	1.0000 
	-4	-13	12	11	108	-41	-2.18	0.39	1.0000 
	13	-4	-12	312	167	209	-2.11	-0.54	1.0000 
	13	-5	-12	95	148	93	0.05	0.07	1.0000 
	14	2	12	275	130	296	0.38	-0.36	1.0000 
	14	1	12	1057	241	1090	-0.36	-0.17	1.0000 
	-1	-14	12	1266	266	1300	-0.37	-0.33	1.0000 
	1	1	-13	36	86	140	-3.69	-1.89	1.0000 
	1	-1	-13	5	83	50	4.02	-0.67	1.0000 
	-1	1	-13	17	93	89	3.87	-0.98	1.0000 
	-1	-1	-13	45	93	151	-3.43	-2	1.0000 
	-1	2	-13	211	96	228	0	-1.55	1.0000 
	1	-2	-13	277	120	296	-0.14	-1.04	1.0000 
	2	1	-13	302	100	343	0.73	-0.28	1.0000 
	-2	-1	-13	301	127	342	0.79	0.01	1.0000 
	2	-1	-13	211	103	232	-0.13	-1.43	1.0000 
	-1	-2	-13	294	143	341	0.8	-0.51	1.0000 
	-2	1	-13	471	138	493	-0.03	-1.21	1.0000 
	2	-1	-13	263	99	287	-0.13	-1.43	1.0000 
	1	2	-13	294	100	326	0.63	0.02	1.0000 
	-2	2	-13	5941	354	5582	-1.55	-0.68	1.0000 
	2	2	-13	5799	325	5428	1.64	-0.2	1.0000 
	-2	-2	-13	5319	382	4988	1.52	-0.39	1.0000 
	2	-2	-13	6444	329	6077	-1.53	-0.48	1.0000 
	2	-2	-13	5887	391	5536	-1.53	-0.48	1.0000 
	-3	-2	-13	7136	460	6808	-1.33	0.43	1.0000 
	2	-3	-13	6954	459	6748	0.87	0.65	1.0000 
	-2	3	-13	6984	393	6839	0.6	0.4	1.0000 
	2	-3	-13	7243	356	7032	0.87	0.65	1.0000 
	3	2	-13	7700	406	7324	-1.45	0.04	1.0000 
	3	2	-13	7555	465	7183	-1.45	0.04	1.0000 
	3	1	-13	202	92	188	0.43	-0.42	1.0000 
	3	1	-13	208	108	194	0.43	-0.42	1.0000 
	-1	3	-13	85	74	82	0.03	1.06	1.0000 
	1	-3	-13	309	131	311	0.12	0.67	1.0000 
	1	-3	13	197	73	193	0.03	-1.06	1.0000 
	-3	-1	-13	240	130	220	0.47	-0.06	1.0000 
	-1	-3	13	159	102	147	0.39	0.23	1.0000 
	3	-1	-13	192	93	190	0.06	0.74	1.0000 
	1	3	-13	316	88	299	0.39	-0.23	1.0000 
	-1	-3	-13	188	122	174	0.39	-0.16	1.0000 
	-3	1	-13	299	122	304	0.22	1.14	1.0000 
	3	-1	-13	219	114	217	0.06	0.74	1.0000 
	-2	-3	-13	8206	493	7816	-1.46	0.19	1.0000 
	3	-2	-13	7468	472	7250	0.86	0.28	1.0000 
	2	3	-13	7820	385	7500	-1.23	0.15	1.0000 
	-3	2	-13	7571	435	7367	0.84	0.84	1.0000 
	-2	-3	13	7692	415	7375	-1.23	-0.15	1.0000 
	3	-2	-13	7258	405	7043	0.86	0.28	1.0000 
	3	3	13	6313	345	7018	-2.93	-1.4	1.0000 
	3	-3	-13	6345	374	7048	2.79	-1.24	1.0000 
	-3	-3	-13	5724	453	6396	-2.93	1.4	1.0000 
	3	-3	-13	5942	465	6623	2.79	-1.24	1.0000 
	-3	-3	13	6004	409	6670	-2.85	-1.48	1.0000 
	3	3	-13	6134	369	6808	-2.85	1.48	1.0000 
	-4	-3	-13	2830	311	2808	-0.3	1.82	1.0000 
	4	3	-13	2217	195	2198	-0.33	2.08	1.0000 
	3	-4	-13	2844	319	2752	0.59	-2.73	1.0000 
	4	3	13	2291	189	2271	-0.3	-1.82	1.0000 
	3	-4	-13	2134	177	2052	0.59	-2.73	1.0000 
	-4	-3	-13	2268	190	2248	-0.3	1.82	1.0000 
	-4	-3	13	2400	274	2381	-0.33	-2.08	1.0000 
	4	3	-13	2186	292	2167	-0.33	2.08	1.0000 
	4	2	-13	2490	290	2501	-0.1	0.44	1.0000 
	-4	-2	-13	2248	275	2232	0.08	0.89	1.0000 
	2	-4	-13	2096	275	2124	0.14	-0.89	1.0000 
	2	-4	13	2093	170	2109	0.06	0.83	1.0000 
	2	-4	-13	2158	156	2186	0.14	-0.89	1.0000 
	4	2	-13	2177	207	2188	-0.1	0.44	1.0000 
	-1	4	-13	224	90	339	2.34	1.46	1.0000 
	4	1	-13	168	108	257	-1.99	-0.64	1.0000 
	-4	-1	-13	244	148	344	-1.92	-0.44	1.0000 
	1	-4	-13	181	140	285	2.32	0.39	1.0000 
	4	1	-13	323	141	442	-1.99	-0.64	1.0000 
	1	-4	13	256	112	378	2.34	-1.46	1.0000 
	-1	-4	13	267	135	379	-2	0.97	1.0000 
	1	4	-13	367	88	497	-2	-0.97	1.0000 
	4	-1	-13	334	134	469	2.3	0.77	1.0000 
	-1	-4	-13	342	169	467	-2.08	-0.07	1.0000 
	4	-1	-13	228	132	342	2.3	0.77	1.0000 
	-4	1	-13	452	156	614	2.37	1.18	1.0000 
	4	-2	-13	2301	279	2339	0.18	-1.13	1.0000 
	2	4	-13	2496	183	2501	-0.05	0.41	1.0000 
	-2	-4	13	2255	251	2260	-0.05	-0.41	1.0000 
	-2	-4	-13	2351	289	2351	-0.04	0.85	1.0000 
	4	-2	-13	2263	225	2300	0.18	-1.13	1.0000 
	3	4	-13	2184	169	2173	-0.27	2.06	1.0000 
	-3	-4	-13	2266	288	2240	-0.34	1.72	1.0000 
	-3	-4	13	1899	247	1888	-0.27	-2.06	1.0000 
	4	-3	-13	2512	292	2455	0.4	-3.15	1.0000 
	4	-3	-13	2135	211	2081	0.4	-3.15	1.0000 
	-4	-4	13	534	195	768	-3.1	-1.59	1.0000 
	-4	-4	-13	782	230	1057	-3.06	1.01	1.0000 
	4	4	-13	676	129	937	-3.1	1.59	1.0000 
	4	-4	-13	421	134	692	3.63	-2.3	1.0000 
	4	4	-13	316	185	499	-3.1	1.59	1.0000 
	4	-4	-13	509	204	804	3.63	-2.3	1.0000 
	-4	-4	-13	576	150	814	-3.06	1.01	1.0000 
	5	4	-13	79	147	194	-3.37	0.21	1.0000 
	-5	-4	13	201	175	370	-3.37	-0.21	1.0000 
	4	-5	-13	156	165	301	3.18	1.2	1.0000 
	-5	-4	-13	84	150	193	-3.15	-0.01	1.0000 
	-5	-4	-13	0	70	22	-3.15	-0.01	1.0000 
	3	-5	-13	167	141	179	-0.5	-2.29	1.0000 
	5	3	13	124	66	115	0.29	-0.15	1.0000 
	5	3	-13	196	138	178	0.47	0.3	1.0000 
	-5	-3	-13	145	140	135	0.29	0.15	1.0000 
	5	3	-13	111	68	97	0.47	0.3	1.0000 
	-5	-3	-13	134	66	124	0.29	0.15	1.0000 
	-5	-3	13	235	145	215	0.47	-0.3	1.0000 
	-5	-2	-13	69	44	93	0.89	-0.48	1.0000 
	5	2	-13	68	80	99	1.11	-0.48	1.0000 
	5	2	-13	43	110	68	1.11	-0.48	1.0000 
	2	-5	-13	36	107	57	-0.52	-2.29	1.0000 
	2	-5	13	146	84	195	-0.54	2.25	1.0000 
	5	2	13	81	84	107	0.89	0.48	1.0000 
	-5	-2	-13	24	116	39	0.89	-0.48	1.0000 
	5	1	-13	970	184	883	-0.96	0.42	1.0000 
	1	-5	13	714	140	624	1.17	0.53	1.0000 
	-5	-1	-13	924	200	839	-0.97	0.68	1.0000 
	5	1	-13	911	190	827	-0.96	0.42	1.0000 
	1	-5	-13	812	192	730	0.99	-0.52	1.0000 
	-1	-5	-13	1110	224	1012	-1.01	0.58	1.0000 
	5	-1	-13	757	181	678	1	-0.71	1.0000 
	-1	-5	13	895	171	807	-1.02	-0.5	1.0000 
	5	-1	-13	776	167	696	1	-0.71	1.0000 
	5	-2	-13	117	101	163	-0.6	-2.31	1.0000 
	-2	-5	13	2	101	-81	0.85	0.32	1.0000 
	5	-2	-13	33	102	54	-0.6	-2.31	1.0000 
	-2	-5	-13	150	141	189	0.97	-0.51	1.0000 
	-3	-5	13	62	123	54	0.34	-0.22	1.0000 
	5	-3	-13	238	143	244	-0.67	-2.16	1.0000 
	-3	-5	-13	314	158	303	0.23	0.24	1.0000 
	5	-3	-13	101	93	101	-0.67	-2.16	1.0000 
	-4	-5	-13	143	164	293	-3.44	0.2	1.0000 
	-4	-5	-13	190	110	359	-3.44	0.2	1.0000 
	5	-4	-13	86	154	198	3.16	1.1	1.0000 
	5	-4	-13	55	89	148	3.16	1.1	1.0000 
	-4	-5	13	112	148	239	-3.24	-0.04	1.0000 
	5	5	-13	1072	232	887	-1.98	0.57	1.0000 
	-5	-5	13	925	217	754	-1.98	-0.57	1.0000 
	-5	-5	-13	892	146	731	-1.89	0.04	1.0000 
	5	-5	-13	1081	225	854	2.58	2.07	1.0000 
	-5	-5	-13	882	209	722	-1.89	0.04	1.0000 
	-6	-5	-13	605	207	583	0.33	-0.83	1.0000 
	-6	-5	13	553	197	510	0.65	0.68	1.0000 
	5	-6	-13	602	204	588	-0.22	-0.91	1.0000 
	6	5	-13	651	213	604	0.65	-0.68	1.0000 
	-6	-5	-13	414	116	396	0.33	-0.83	1.0000 
	6	4	-13	368	182	415	0.82	-1.23	1.0000 
	-6	-4	13	587	190	646	0.82	1.23	1.0000 
	-6	-4	-13	613	209	658	0.62	-0.99	1.0000 
	4	-6	-13	302	171	372	-1.12	1.9	1.0000 
	-6	-3	13	19	134	37	-1.06	0.53	1.0000 
	6	3	-13	3	99	-58	-1.06	-0.53	1.0000 
	3	-6	-13	33	123	65	1.3	-1.04	1.0000 
	6	3	13	104	90	148	-1.15	0.78	1.0000 
	6	3	-13	219	97	274	-1.06	-0.53	1.0000 
	6	2	-13	748	191	606	-1.82	-0.17	1.0000 
	2	-6	-13	512	170	377	2.08	-1.43	1.0000 
	6	2	-13	648	143	516	-1.82	-0.17	1.0000 
	2	-6	13	592	122	466	1.78	1.58	1.0000 
	6	2	13	602	137	462	-1.99	0.56	1.0000 
	1	-6	-13	1314	233	1149	-1.59	0.37	1.0000 
	6	1	-13	1898	267	1703	1.54	0.14	1.0000 
	6	1	-13	1609	225	1430	1.54	0.14	1.0000 
	1	-6	13	1332	179	1147	-1.77	-0.22	1.0000 
	-1	-6	13	1476	209	1311	1.49	-0.4	1.0000 
	6	-1	-13	1206	217	1029	-1.78	0.29	1.0000 
	-1	-6	-13	1478	250	1324	1.38	0.23	1.0000 
	6	-1	-13	1263	216	1082	-1.78	0.29	1.0000 
	-2	-6	13	472	138	358	-1.88	0.08	1.0000 
	-2	-6	-13	420	163	308	-1.94	-0.37	1.0000 
	6	-2	-13	331	157	235	1.84	-1.29	1.0000 
	6	-2	-13	572	146	444	1.84	-1.29	1.0000 
	-3	-6	-13	90	137	127	-1.09	-0.49	1.0000 
	-3	-6	13	78	138	114	-1.14	0.59	1.0000 
	-3	-6	-13	22	103	41	-1.09	-0.49	1.0000 
	6	-3	-13	126	143	183	1.3	-0.99	1.0000 
	6	-3	-13	11	78	31	1.3	-0.99	1.0000 
	6	-4	-13	624	218	712	-0.98	1.6	1.0000 
	-4	-6	13	648	200	703	0.73	1.03	1.0000 
	-4	-6	-13	747	228	798	0.63	-1.07	1.0000 
	-4	-6	-13	501	147	543	0.63	-1.07	1.0000 
	6	-4	-13	366	145	432	-0.98	1.6	1.0000 
	-5	-6	-13	500	142	480	0.34	-0.92	1.0000 
	-5	-6	-13	501	188	481	0.34	-0.92	1.0000 
	-5	-6	13	674	204	635	0.51	0.4	1.0000 
	6	-5	-13	499	199	486	-0.23	-0.93	1.0000 
	6	-6	-13	120	148	243	2.79	-2.72	1.0000 
	6	6	-13	199	167	325	-2.61	0.27	1.0000 
	-6	-6	13	185	173	308	-2.61	-0.27	1.0000 
	-6	-6	-13	261	105	412	-2.68	0.74	1.0000 
	-6	-6	-13	60	155	141	-2.68	0.74	1.0000 
	7	6	-13	1169	261	898	-2.8	-0.68	1.0000 
	6	-7	-13	991	232	776	2.4	-0.3	1.0000 
	-7	-6	13	758	190	543	-2.8	0.68	1.0000 
	5	-7	-13	20	129	49	-0.23	-2.65	1.0000 
	7	5	-13	72	134	114	1.14	-2.22	1.0000 
	-7	-5	13	86	135	132	1.14	2.22	1.0000 
	-7	-4	13	23	107	-76	2.94	1.22	1.0000 
	7	4	-13	84	135	76	2.94	-1.22	1.0000 
	4	-7	-13	18	117	-41	-2.77	-0.72	1.0000 
	7	3	-13	165	142	177	-0.93	-1.01	1.0000 
	7	3	13	93	74	104	-0.99	0.88	1.0000 
	3	-7	-13	84	136	103	0.96	-0.22	1.0000 
	2	-7	13	720	158	898	2.16	0.62	1.0000 
	2	-7	-13	753	235	949	2.27	-0.19	1.0000 
	7	2	-13	1010	267	1220	-2.08	0.32	1.0000 
	7	2	13	712	190	905	-2.26	-0.16	1.0000 
	7	1	13	1740	256	1804	0.46	-0.67	1.0000 
	1	-7	13	1603	210	1674	-0.55	-0.53	1.0000 
	1	-7	-13	1437	265	1491	-0.43	0.66	1.0000 
	7	1	-13	1265	261	1333	0.58	0.7	1.0000 
	-1	-7	-13	1077	244	1126	0.45	0.66	1.0000 
	7	-1	-13	1414	254	1479	-0.52	0.74	1.0000 
	-1	-7	13	1269	221	1328	0.49	-0.78	1.0000 
	-2	-7	-13	750	232	933	-2.11	0.15	1.0000 
	7	-2	-13	1017	235	1247	2.32	-0.24	1.0000 
	-2	-7	13	676	211	859	-2.14	-0.64	1.0000 
	-3	-7	-13	4	95	-17	-0.83	-0.98	1.0000 
	-3	-7	13	3	110	-14	-0.83	0.7	1.0000 
	7	-3	-13	2	82	-49	0.96	-0.36	1.0000 
	7	-3	-13	2	112	-24	0.96	-0.36	1.0000 
	-3	-7	-13	42	104	44	-0.83	-0.98	1.0000 
	-4	-7	-13	30	135	12	2.87	-1.01	1.0000 
	-4	-7	-13	75	97	60	2.87	-1.01	1.0000 
	-4	-7	13	185	157	169	2.79	0.96	1.0000 
	7	-4	-13	70	114	68	-3	-0.82	1.0000 
	7	-4	-13	22	95	-2	-3	-0.82	1.0000 
	-5	-7	-13	17	94	22	0.82	-1.57	1.0000 
	7	-5	-13	31	94	72	-0.41	-2.81	1.0000 
	-5	-7	-13	125	162	150	0.82	-1.57	1.0000 
	7	-5	-13	18	115	-62	-0.41	-2.81	1.0000 
	-5	-7	13	84	141	109	0.73	1.73	1.0000 
	-6	-7	-13	1568	277	1269	-2.65	0.01	1.0000 
	7	-6	-13	1238	261	995	2.41	-0.49	1.0000 
	-6	-7	-13	1370	199	1092	-2.65	0.01	1.0000 
	-6	-7	13	832	194	620	-2.63	0.06	1.0000 
	7	-7	-13	2864	411	2902	0.24	-0.03	1.0000 
	7	7	-13	2526	401	2693	-0.89	2.2	1.0000 
	-7	-7	13	2500	364	2666	-0.89	-2.2	1.0000 
	7	-8	-13	1248	316	1380	-0.96	-2.23	1.0000 
	-8	-7	13	1190	271	1224	0.38	-0.96	1.0000 
	8	7	-13	1243	322	1277	0.38	0.96	1.0000 
	8	6	-13	445	209	409	0.6	-0.12	1.0000 
	6	-8	-13	364	173	306	-1.12	-0.57	1.0000 
	-8	-6	13	432	170	396	0.6	0.12	1.0000 
	8	5	-13	324	194	288	0.7	-0.26	1.0000 
	-8	-5	13	186	148	159	0.7	0.26	1.0000 
	5	-8	-13	350	176	331	-0.35	-0.17	1.0000 
	8	4	-13	540	215	601	0.88	-0.44	1.0000 
	4	-8	-13	488	197	508	-0.24	0.58	1.0000 
	-8	-4	13	526	193	586	0.88	0.44	1.0000 
	8	3	13	293	144	338	-0.49	1.38	1.0000 
	3	-8	-13	140	151	178	1.21	1.1	1.0000 
	8	3	-13	344	186	393	-0.32	-1.82	1.0000 
	8	2	13	1036	205	971	-0.74	-0.48	1.0000 
	2	-8	-13	1213	247	1153	0.5	-1.04	1.0000 
	8	2	-13	1122	262	1080	-0.42	-0.03	1.0000 
	8	1	-13	1374	277	1509	-1.2	2.25	1.0000 
	8	1	13	1215	237	1341	-1.19	-2.19	1.0000 
	1	-8	-13	1060	247	1180	0.96	-2.14	1.0000 
	1	-8	13	887	193	997	0.92	2.45	1.0000 
	-1	-8	13	933	211	1039	-1.15	-2.46	1.0000 
	8	-1	-13	1145	260	1273	0.96	-2.33	1.0000 
	-1	-8	-13	1398	280	1534	-1.2	2.08	1.0000 
	8	-2	-13	1107	238	1034	0.67	-1.13	1.0000 
	-2	-8	-13	897	214	862	-0.42	0.29	1.0000 
	-2	-8	-13	814	218	781	-0.42	0.29	1.0000 
	-2	-8	13	722	194	678	-0.59	-0.38	1.0000 
	-3	-8	-13	268	128	305	-0.36	-1.4	1.0000 
	-3	-8	-13	300	174	339	-0.36	-1.4	1.0000 
	-3	-8	13	163	156	190	-0.24	1.68	1.0000 
	8	-3	-13	110	123	141	1.14	1.02	1.0000 
	-4	-8	-13	766	193	817	0.64	-0.62	1.0000 
	-4	-8	13	583	215	651	0.91	-0.05	1.0000 
	8	-4	-13	717	215	754	-0.39	0.57	1.0000 
	-4	-8	-13	635	227	681	0.64	-0.62	1.0000 
	8	-4	-13	616	205	650	-0.39	0.57	1.0000 
	8	-5	-13	451	169	433	-0.28	-0.15	1.0000 
	-5	-8	-13	260	104	235	0.54	-0.3	1.0000 
	-5	-8	13	365	182	340	0.45	-0.45	1.0000 
	8	-5	-13	16	144	13	-0.28	-0.15	1.0000 
	-5	-8	-13	485	204	451	0.54	-0.3	1.0000 
	8	-6	-13	544	203	468	-1.18	-0.45	1.0000 
	-6	-8	-13	304	122	272	0.68	-0.6	1.0000 
	-6	-8	13	73	146	56	0.69	-0.12	1.0000 
	-6	-8	-13	340	192	307	0.68	-0.6	1.0000 
	-7	-8	13	967	270	1019	0.61	-1.14	1.0000 
	8	-7	-13	978	281	1069	-0.69	-2.27	1.0000 
	-7	-8	-13	1246	218	1311	0.59	-0.28	1.0000 
	8	8	-13	326	179	419	-1.75	1.89	1.0000 
	8	-8	-13	280	210	415	2.5	0.61	1.0000 
	-8	-8	13	289	165	376	-1.75	-1.89	1.0000 
	9	8	-13	95	117	122	-0.1	1.06	1.0000 
	-9	-8	13	93	143	120	-0.1	-1.06	1.0000 
	8	-9	-13	3	142	19	0.13	3.86	1.0000 
	-9	-7	13	121	127	176	-1.6	-1.01	1.0000 
	9	7	-13	20	110	43	-1.6	1.01	1.0000 
	7	-9	-13	148	154	186	1.06	1.02	1.0000 
	9	6	-13	4	95	-185	-0.43	1.23	1.0000 
	6	-9	-13	150	136	175	0.56	0.35	1.0000 
	-9	-6	13	209	152	261	-0.43	-1.23	1.0000 
	9	5	-13	882	221	774	-1.32	1.43	1.0000 
	-9	-5	13	1170	252	1046	-1.32	-1.43	1.0000 
	5	-9	-13	972	234	850	1.38	0.84	1.0000 
	9	4	-13	895	281	985	-0.99	0.09	1.0000 
	4	-9	-13	876	258	1019	1.51	-0.68	1.0000 
	9	3	-13	1033	283	1078	0.51	-1.39	1.0000 
	3	-9	-13	989	252	1022	-0.28	0.58	1.0000 
	9	3	13	859	210	878	0.27	1.36	1.0000 
	9	2	-13	1325	300	1336	-0.11	0.15	1.0000 
	9	2	13	1116	241	1131	-0.17	-0.46	1.0000 
	2	-9	-13	1169	252	1159	-0.13	-0.44	1.0000 
	9	1	13	1145	225	1014	-1.47	-1.51	1.0000 
	1	-9	-13	841	217	697	1.75	-2	1.0000 
	9	1	-13	977	253	858	-1.45	1.48	1.0000 
	1	-9	13	1303	211	1117	1.86	2.39	1.0000 
	9	-1	13	1119	241	951	1.78	2.1	1.0000 
	-1	-9	13	949	208	831	-1.48	-1.65	1.0000 
	-1	-9	-13	852	215	739	-1.44	1.25	1.0000 
	9	-1	-13	1317	265	1140	1.77	-2.45	1.0000 
	-1	-9	-13	1434	263	1287	-1.44	1.25	1.0000 
	-2	-9	-13	1072	235	1074	-0.04	0.19	1.0000 
	-2	-9	13	966	233	980	-0.17	-0.35	1.0000 
	9	-2	-13	1374	287	1374	-0.04	-0.58	1.0000 
	9	-2	13	1161	293	1163	0.01	0.11	1.0000 
	-2	-9	-13	1312	257	1315	-0.04	0.19	1.0000 
	-3	-9	-13	709	204	745	0.51	-1.36	1.0000 
	-3	-9	-13	642	217	677	0.51	-1.36	1.0000 
	-3	-9	13	498	198	519	0.38	1.23	1.0000 
	9	-3	-13	858	237	898	-0.39	0.5	1.0000 
	9	-4	-13	861	241	998	1.48	-0.41	1.0000 
	-4	-9	-13	653	196	745	-1.15	-0.09	1.0000 
	-4	-9	-13	619	228	708	-1.15	-0.09	1.0000 
	-4	-9	13	626	221	717	-1.19	-0.39	1.0000 
	-5	-9	-13	1207	257	1077	-1.33	1.1	1.0000 
	9	-5	-13	734	223	626	1.45	1.43	1.0000 
	-5	-9	-13	1000	213	882	-1.33	1.1	1.0000 
	9	-5	-13	921	226	800	1.45	1.43	1.0000 
	-5	-9	13	885	234	774	-1.35	-1.48	1.0000 
	-6	-9	-13	23	80	37	-0.55	0.73	1.0000 
	9	-6	-13	78	135	95	0.44	0.51	1.0000 
	-6	-9	-13	2	127	-82	-0.55	0.73	1.0000 
	-6	-9	13	4	147	-5	-0.65	-1.17	1.0000 
	-7	-9	13	215	159	290	-1.66	-1.27	1.0000 
	-7	-9	-13	137	114	192	-1.51	0.79	1.0000 
	9	-7	-13	98	175	139	1.33	0.55	1.0000 
	-8	-9	13	73	156	103	0.14	-1.17	1.0000 
	9	-8	-13	6	133	61	0.88	3.84	1.0000 
	-9	-9	13	23	149	146	4.54	1.82	1.0000 
	9	-9	-13	7	131	61	-3.54	0.04	1.0000 
	9	-10	-13	59	135	188	-2.77	-3.42	1.0000 
	-10	-8	13	3	104	40	2.85	1.45	1.0000 
	10	8	-13	23	106	-107	2.85	-1.45	1.0000 
	8	-10	-13	35	104	97	-2.42	1.29	1.0000 
	7	-10	-13	36	99	25	0.62	2.94	1.0000 
	-10	-7	13	264	117	247	-0.36	0.16	1.0000 
	10	7	-13	87	127	77	-0.36	-0.16	1.0000 
	10	6	-13	64	102	109	-1.62	-0.3	1.0000 
	6	-10	-13	151	132	233	1.98	-0.23	1.0000 
	-10	-6	13	239	131	321	-1.62	0.3	1.0000 
	5	-10	-13	108	175	287	3.58	-2.94	1.0000 
	-10	-5	13	172	166	355	-3.51	-1.75	1.0000 
	10	5	-13	6	114	64	-3.51	1.75	1.0000 
	10	4	-13	56	163	144	-2.69	2.24	1.0000 
	4	-10	-13	162	152	313	2.69	-2.95	1.0000 
	3	-10	-13	121	130	178	-1.57	-0.56	1.0000 
	10	3	13	87	103	133	1.34	-1.4	1.0000 
	10	3	-13	179	156	258	1.63	1.48	1.0000 
	10	2	13	1	73	-28	0.38	0.38	1.0000 
	10	2	-13	237	147	221	0.35	-0.15	1.0000 
	2	-10	-13	78	120	87	-0.01	0.94	1.0000 
	1	-10	-13	98	141	206	2.14	2.66	1.0000 
	10	1	-13	86	137	176	-1.79	-2.79	1.0000 
	1	-10	13	135	115	250	2.34	-1.96	1.0000 
	10	1	13	38	94	102	-1.69	3.08	1.0000 
	-1	-10	-13	20	100	66	-1.67	-3.15	1.0000 
	-1	-10	-13	211	169	356	-1.67	-3.15	1.0000 
	10	-1	13	52	128	130	2.21	-2.33	1.0000 
	-1	-10	13	86	142	176	-1.87	2.67	1.0000 
	10	-1	-13	133	144	250	2.27	2.22	1.0000 
	10	-2	13	2	122	-17	-0.06	-0.91	1.0000 
	-2	-10	13	15	111	12	0.26	-0.11	1.0000 
	-2	-10	-13	36	90	30	0.41	-0.5	1.0000 
	10	-2	-13	7	114	8	0.05	0.65	1.0000 
	-2	-10	-13	1	112	-33	0.41	-0.5	1.0000 
	10	-3	13	145	176	210	-1.65	0.4	1.0000 
	-3	-10	-13	119	129	180	1.56	1.22	1.0000 
	-3	-10	-13	69	123	116	1.56	1.22	1.0000 
	-3	-10	13	144	147	215	1.55	-1.83	1.0000 
	10	-3	-13	102	112	154	-1.53	-0.46	1.0000 
	-4	-10	13	196	179	342	-2.79	-1.58	1.0000 
	10	-4	-13	15	121	5	2.63	-2.78	1.0000 
	-4	-10	-13	55	126	143	-2.61	2.57	1.0000 
	10	-5	-13	147	146	342	3.28	-3.19	1.0000 
	-5	-10	-13	93	124	236	-3.34	2.17	1.0000 
	-5	-10	13	258	201	457	-3.53	-0.24	1.0000 
	10	-6	-13	93	160	158	1.95	-0.23	1.0000 
	-6	-10	13	542	211	702	-1.92	1.25	1.0000 
	-6	-10	-13	243	98	333	-1.73	-0.54	1.0000 
	-7	-10	-13	53	80	49	-0.21	-0.49	1.0000 
	10	-7	-13	162	153	172	0.56	3.14	1.0000 
	-7	-10	13	318	197	295	-0.43	0.07	1.0000 
	10	-8	-13	69	126	141	-2.1	1.37	1.0000 
	-8	-10	13	24	141	-24	2.98	1.28	1.0000 
	8	-11	-13	2	134	-16	-0.89	0.07	1.0000 
	7	-11	-13	233	129	221	-0.22	0.64	1.0000 
	-11	-7	13	32	103	-4	1.15	3.62	1.0000 
	11	7	-13	330	201	446	1.15	-3.62	1.0000 
	11	6	-13	254	144	255	-0.99	-2.16	1.0000 
	-11	-6	13	413	146	417	-0.99	2.16	1.0000 
	6	-11	-13	252	133	265	1.43	-2.84	1.0000 
	5	-11	-13	18	100	85	2.61	-3.19	1.0000 
	11	5	-13	103	160	213	-2.85	0.99	1.0000 
	4	-11	-13	499	176	434	1.04	-0.46	1.0000 
	11	4	-13	526	202	491	-0.81	3.14	1.0000 
	11	3	-13	633	186	513	1.83	3.37	1.0000 
	3	-11	-13	413	150	333	-1.39	0.11	1.0000 
	2	-11	-13	473	170	439	0.51	1.44	1.0000 
	11	2	-13	346	177	331	-0.38	-1.09	1.0000 
	11	2	13	439	175	421	-0.35	0.59	1.0000 
	11	1	-13	137	165	253	-1.24	-4.37	1.0000 
	11	1	13	118	121	219	-0.96	4.51	1.0000 
	1	-11	-13	315	176	424	1.42	2.73	1.0000 
	11	-1	-13	22	117	42	1.47	3.06	1.0000 
	11	-1	13	198	132	293	1.54	-2.93	1.0000 
	-1	-11	-13	342	171	513	-1.07	-4.15	1.0000 
	-1	-11	13	211	177	367	-1.14	4.72	1.0000 
	-2	-11	-13	283	144	266	-0.43	-0.94	1.0000 
	11	-2	13	458	174	434	0.36	-1.5	1.0000 
	-2	-11	13	295	155	277	-0.41	0.53	1.0000 
	11	-2	-13	442	171	407	0.54	1.23	1.0000 
	-3	-11	13	576	187	468	1.86	-4.23	1.0000 
	-3	-11	-13	530	142	425	1.74	3.44	1.0000 
	11	-3	-13	221	170	172	-1.18	-0.17	1.0000 
	11	-3	13	743	231	618	-1.62	0.27	1.0000 
	-4	-11	13	518	198	479	-0.73	-2.44	1.0000 
	11	-4	-13	345	149	295	1.01	-0.96	1.0000 
	11	-4	13	567	216	495	1.08	0.46	1.0000 
	-4	-11	-13	392	123	362	-0.82	3.45	1.0000 
	11	-5	-13	37	130	135	2.41	-3.85	1.0000 
	11	-5	13	133	198	276	2.78	2.45	1.0000 
	-5	-11	13	190	158	334	-2.88	1.02	1.0000 
	-5	-11	-13	223	124	378	-2.77	1.42	1.0000 
	-6	-11	13	276	152	347	-1.49	3.9	1.0000 
	-6	-11	-13	476	138	499	-1	-2.48	1.0000 
	11	-6	-13	325	173	323	1.42	-2.44	1.0000 
	11	-7	-13	315	138	313	-0.31	1.62	1.0000 
	-7	-11	13	427	212	568	0.89	3.65	1.0000 
	-7	-11	-13	41	73	-58	1.38	-4.06	1.0000 
	12	5	-13	5	78	-99	-1.41	-0.08	1.0000 
	12	4	-13	327	194	338	-0.25	0.87	1.0000 
	12	3	-13	401	196	445	0.62	0.76	1.0000 
	12	2	-13	83	122	71	0.6	-1.1	1.0000 
	2	-12	-13	385	171	339	-0.71	1.26	1.0000 
	12	2	13	181	98	161	0.67	0.82	1.0000 
	12	1	13	2	77	-164	0.71	0.44	1.0000 
	1	-12	-13	3	148	-57	-0.43	-1.03	1.0000 
	12	1	-13	72	124	91	0.74	-0.46	1.0000 
	12	-1	-13	1	123	-2	-0.41	-0.69	1.0000 
	12	-1	13	131	121	143	-0.41	0.79	1.0000 
	-1	-12	-13	241	137	276	0.75	-0.1	1.0000 
	-1	-12	13	205	122	238	0.79	0.85	1.0000 
	-2	-12	13	314	152	284	0.79	1	1.0000 
	12	-2	13	38	82	24	-0.69	-1.03	1.0000 
	12	-2	-13	277	141	244	-0.58	1.12	1.0000 
	-2	-12	-13	186	121	174	0.5	-1.15	1.0000 
	12	-3	-13	345	175	394	-0.83	0.15	1.0000 
	12	-3	13	453	210	507	-0.82	0.01	1.0000 
	-3	-12	-13	298	155	335	0.61	0.71	1.0000 
	-3	-12	13	309	172	359	0.66	-1.68	1.0000 
	-4	-12	-13	211	108	219	-0.24	1.07	1.0000 
	12	-4	13	126	152	153	0.8	-0.27	1.0000 
	-4	-12	13	152	143	169	-0.51	-1.02	1.0000 
	12	-4	-13	119	129	137	0.56	0.2	1.0000 
	-5	-12	13	214	171	292	-1.55	0.84	1.0000 
	12	-5	13	294	193	381	1.55	-0.45	1.0000 
	-5	-12	-13	4	115	-4	-1.33	0.02	1.0000 
	12	-5	-13	47	123	82	1.45	0.31	1.0000 
	-6	-12	-13	2	80	-280	-0.76	-0.65	1.0000 
	-7	-12	-13	509	135	573	-0.58	-1.98	1.0000 
	13	2	13	179	121	240	1.37	-0.41	1.0000 
	13	2	-13	333	177	421	1.44	0.61	1.0000 
	2	-13	-13	264	137	328	-1.35	-1.03	1.0000 
	13	1	-13	280	144	199	1.73	1.59	1.0000 
	1	-13	-13	312	142	233	-2.15	-2.05	1.0000 
	13	1	13	674	171	557	1.64	-1.75	1.0000 
	13	-1	13	20	97	-83	-2.2	2.07	1.0000 
	-1	-13	13	431	136	330	1.78	-1.81	1.0000 
	-1	-13	-13	151	116	94	1.68	1.73	1.0000 
	13	-1	-13	195	154	134	-2.08	-2.1	1.0000 
	-2	-13	-13	238	135	311	1.37	0.71	1.0000 
	-2	-13	13	653	201	770	1.43	-0.31	1.0000 
	13	-2	13	241	166	302	-1.33	0.94	1.0000 
	13	-2	-13	170	169	220	-1.32	-1.02	1.0000 
	13	-3	13	108	163	172	1.73	-0.63	1.0000 
	13	-3	-13	116	131	169	1.42	0.47	1.0000 
	-3	-13	13	59	146	85	-1.24	1.23	1.0000 
	13	-4	-13	10	93	-76	1.94	0.74	1.0000 
	-1	-14	13	83	119	93	0.27	-0.74	1.0000 
	0	0	-14	31119	1264	30843	-0.33	-3.2	1.0000 
	0	-1	-14	24275	1085	24119	0.51	-2.36	1.0000 
	-1	0	-14	24928	1080	24821	0.41	-2.43	1.0000 
	0	1	-14	27292	1077	27253	0.26	-2.46	1.0000 
	1	0	-14	25716	1074	25610	0.4	-2.41	1.0000 
	-1	1	-14	17115	796	17504	1.09	-2.01	1.0000 
	1	-1	-14	16570	813	16959	1.08	-1.45	1.0000 
	1	1	-14	18252	798	18471	0.65	-2.24	1.0000 
	-1	-1	-14	17306	832	17533	0.67	-1.89	1.0000 
	-2	-1	-14	79	102	48	1.72	-0.78	1.0000 
	1	-2	-14	11	82	4	1.03	-0.92	1.0000 
	-1	2	-14	106	78	97	0.98	-1.47	1.0000 
	2	1	-14	247	94	194	2.01	-1.21	1.0000 
	2	0	-14	1551	213	2026	3.86	-1.25	1.0000 
	0	2	-14	1275	197	1706	3.85	-1.39	1.0000 
	-2	0	-14	1341	226	1788	3.88	-1.15	1.0000 
	0	-2	-14	1423	245	1872	3.79	-1.05	1.0000 
	2	-1	-14	205	90	185	0.93	-0.91	1.0000 
	1	2	-14	89	72	62	1.71	-1.3	1.0000 
	-1	-2	-14	208	118	155	1.81	-0.75	1.0000 
	-2	1	-14	9	83	1	1.08	-1.4	1.0000 
	2	-1	-14	105	97	90	0.93	-0.91	1.0000 
	-2	-2	-14	561	178	725	-2.19	-0.52	1.0000 
	2	-2	-14	615	173	786	-2.18	-1.1	1.0000 
	2	2	-14	447	127	600	-2.25	-0.95	1.0000 
	2	-2	-14	619	128	791	-2.18	-1.1	1.0000 
	-2	2	-14	555	152	730	-2.31	-1.54	1.0000 
	3	2	-14	462	105	381	-1.29	-0.86	1.0000 
	3	2	-14	525	152	439	-1.29	-0.86	1.0000 
	-2	3	-14	472	117	413	-0.91	-0.73	1.0000 
	-3	-2	-14	406	151	329	-1.34	-0.24	1.0000 
	2	-3	-14	521	101	466	-0.81	-0.83	1.0000 
	2	-3	-14	539	164	483	-0.81	-0.83	1.0000 
	3	1	-14	2308	260	2432	-0.72	-1.97	1.0000 
	3	1	-14	2334	237	2459	-0.72	-1.97	1.0000 
	-1	3	-14	2919	237	3056	-0.79	-0.78	1.0000 
	1	-3	-14	2693	290	2848	-0.94	-0.77	1.0000 
	-3	-1	-14	2485	293	2635	-0.92	-1.25	1.0000 
	-3	0	-14	1733	240	1886	1.27	-1.3	1.0000 
	3	0	-14	1732	233	1905	1.44	-1.58	1.0000 
	0	3	-14	1493	173	1652	1.42	-1.41	1.0000 
	0	-3	14	1473	182	1631	1.42	1.41	1.0000 
	3	0	-14	1708	228	1880	1.44	-1.58	1.0000 
	0	-3	-14	1209	230	1332	1.23	-1.38	1.0000 
	-1	-3	-14	2924	326	3069	-0.77	-1.68	1.0000 
	3	-1	-14	2924	254	3069	-0.84	-0.68	1.0000 
	3	-1	-14	2466	266	2599	-0.84	-0.68	1.0000 
	-3	1	-14	2286	256	2426	-0.91	-0.88	1.0000 
	1	3	-14	2734	229	2888	-0.88	-1.52	1.0000 
	-1	-3	14	2664	240	2816	-0.88	1.52	1.0000 
	-2	-3	14	408	129	328	-1.38	0.56	1.0000 
	3	-2	-14	654	127	592	-0.82	-0.72	1.0000 
	3	-2	-14	385	137	337	-0.82	-0.72	1.0000 
	-2	-3	-14	454	159	379	-1.21	-0.56	1.0000 
	-3	2	-14	414	134	364	-0.83	-0.77	1.0000 
	2	3	-14	469	106	383	-1.38	-0.56	1.0000 
	-3	-3	14	566	167	616	0.68	-0.15	1.0000 
	-3	-3	-14	782	199	852	0.79	0.76	1.0000 
	3	-3	-14	874	137	965	0.96	0.97	1.0000 
	3	-3	-14	868	203	959	0.96	0.97	1.0000 
	3	3	-14	901	135	964	0.68	0.15	1.0000 
	-4	-3	14	448	151	383	1.15	0.5	1.0000 
	-4	-3	-14	520	175	446	1.1	0.22	1.0000 
	3	-4	-14	346	152	285	1.15	0.04	1.0000 
	4	3	-14	414	99	352	1.15	-0.5	1.0000 
	4	3	14	312	86	255	1.1	-0.22	1.0000 
	4	3	-14	297	142	245	1.15	-0.5	1.0000 
	4	2	-14	5695	346	5292	1.84	-0.57	1.0000 
	2	-4	14	5670	282	5276	1.8	0.39	1.0000 
	-4	-2	-14	5280	403	4909	1.74	-0.07	1.0000 
	4	2	-14	4975	391	4599	1.84	-0.57	1.0000 
	2	-4	-14	5327	400	4952	1.78	-0.8	1.0000 
	4	1	-14	16983	765	16126	-2.21	-0.27	1.0000 
	-4	-1	-14	16108	799	15284	-2.21	0.21	1.0000 
	4	1	-14	17251	814	16387	-2.21	-0.27	1.0000 
	1	-4	-14	17255	824	16347	-2.29	-0.95	1.0000 
	-1	4	-14	16812	695	16038	-1.96	-1.22	1.0000 
	1	-4	14	16774	658	16001	-1.96	1.22	1.0000 
	-4	0	-14	22300	1082	24187	-4.1	-0.61	1.0000 
	0	-4	14	23087	945	24910	-3.89	0.68	1.0000 
	4	0	-14	22284	1078	24118	-3.98	-0.71	1.0000 
	0	-4	-14	22439	1114	24375	-4.2	-0.51	1.0000 
	0	4	-14	23256	969	25086	-3.89	-0.68	1.0000 
	4	0	-14	21183	1056	22972	-3.98	-0.71	1.0000 
	-4	1	-14	15895	786	15055	-2.19	-1.34	1.0000 
	4	-1	-14	17544	820	16693	-2.12	-1.11	1.0000 
	1	4	-14	17524	692	16676	-2.17	0	1.0000 
	4	-1	-14	17688	794	16833	-2.12	-1.11	1.0000 
	-1	-4	-14	17688	855	16853	-2.13	0.04	1.0000 
	-1	-4	14	17677	724	16826	-2.17	0	1.0000 
	-2	-4	14	5392	359	4983	1.91	0.26	1.0000 
	2	4	-14	5563	300	5147	1.91	-0.26	1.0000 
	4	-2	-14	4942	390	4575	1.8	-0.47	1.0000 
	-2	-4	-14	6129	439	5706	1.84	-0.11	1.0000 
	4	-2	-14	6125	367	5716	1.8	-0.47	1.0000 
	4	-3	-14	457	112	383	1.13	0.68	1.0000 
	-3	-4	14	379	152	313	1.16	-0.21	1.0000 
	-3	-4	-14	268	143	221	1.06	-0.36	1.0000 
	4	-3	-14	404	152	335	1.13	0.68	1.0000 
	3	4	-14	378	83	312	1.16	0.21	1.0000 
	-4	-4	-14	7605	511	7175	-1.69	0.11	1.0000 
	-4	-4	14	6322	424	5911	-1.81	-0.47	1.0000 
	4	-4	-14	6192	370	5915	-1.15	-0.48	1.0000 
	4	4	-14	6409	485	5995	-1.81	0.47	1.0000 
	-4	-4	-14	6349	362	5957	-1.69	0.11	1.0000 
	4	-4	-14	6398	480	6116	-1.15	-0.48	1.0000 
	-5	-4	-14	14844	638	14604	0.59	1.11	1.0000 
	5	4	-14	13784	826	13627	0.42	0.5	1.0000 
	4	-5	-14	15074	830	15027	0.16	-0.42	1.0000 
	-5	-4	-14	14314	800	14078	0.59	1.11	1.0000 
	-5	-4	14	15173	753	15008	0.42	-0.5	1.0000 
	3	-5	-14	1327	249	1182	-1.29	-1.21	1.0000 
	-5	-3	-14	1471	258	1324	-1.4	0.84	1.0000 
	5	3	-14	1356	171	1208	-1.51	1.23	1.0000 
	-5	-3	-14	1691	146	1533	-1.4	0.84	1.0000 
	-5	-3	14	1397	243	1247	-1.51	-1.23	1.0000 
	5	3	14	1245	163	1110	-1.4	-0.84	1.0000 
	5	3	-14	1317	249	1171	-1.51	1.23	1.0000 
	2	-5	-14	4866	420	4970	0.51	-0.33	1.0000 
	2	-5	14	4725	290	4860	0.64	-0.27	1.0000 
	5	2	-14	4856	413	4848	-0.05	0.21	1.0000 
	5	2	14	4754	337	4763	0.03	-0.18	1.0000 
	-5	-2	-14	4168	389	4176	0.03	0.18	1.0000 
	5	2	-14	4900	346	4892	-0.05	0.21	1.0000 
	5	1	-14	20929	991	20256	1.57	-0.01	1.0000 
	-5	-1	-14	21230	980	20529	1.63	-0.16	1.0000 
	1	-5	14	20896	807	20389	1.18	0.05	1.0000 
	5	1	-14	20093	924	19434	1.57	-0.01	1.0000 
	1	-5	-14	21037	996	20610	1	-0.2	1.0000 
	0	-5	14	44356	1588	43695	-1.04	0.23	1.0000 
	0	-5	-14	46828	1846	46180	-1.01	0.12	1.0000 
	5	0	-14	44892	1793	44185	-1.11	-0.09	1.0000 
	5	0	-14	46293	1843	45575	-1.11	-0.09	1.0000 
	5	-1	-14	21538	973	21069	1.08	-0.18	1.0000 
	-1	-5	14	19811	851	19161	1.56	0.11	1.0000 
	-1	-5	-14	21787	1025	21049	1.69	-0.05	1.0000 
	5	-1	-14	21852	997	21380	1.08	-0.18	1.0000 
	-2	-5	14	4927	363	4950	0.09	-0.46	1.0000 
	5	-2	-14	4484	396	4616	0.65	0.12	1.0000 
	-2	-5	-14	4427	403	4419	-0.05	0.14	1.0000 
	5	-2	-14	4800	363	4937	0.65	0.12	1.0000 
	-3	-5	14	1777	252	1625	-1.38	-1.37	1.0000 
	5	-3	-14	1095	183	964	-1.3	-1.05	1.0000 
	-3	-5	-14	1469	250	1301	-1.59	0.81	1.0000 
	5	-3	-14	1374	240	1227	-1.3	-1.05	1.0000 
	-4	-5	14	14455	732	14239	0.55	-0.83	1.0000 
	-4	-5	-14	14561	671	14318	0.63	0.68	1.0000 
	5	-4	-14	14862	726	14807	0.17	-0.2	1.0000 
	5	-4	-14	14648	814	14593	0.17	-0.2	1.0000 
	-5	-5	-14	13551	832	14322	2.17	0.18	1.0000 
	5	5	-14	14234	881	15036	2.26	-0.54	1.0000 
	-5	-5	14	15072	789	15897	2.26	0.54	1.0000 
	-5	-5	-14	14222	688	15012	2.17	0.18	1.0000 
	5	-5	-14	14895	863	15503	1.54	1.25	1.0000 
	5	-6	-14	8054	551	7183	3.21	1.61	1.0000 
	6	5	-14	7512	559	6702	3.25	-0.27	1.0000 
	-6	-5	-14	7307	518	6543	3.11	-0.29	1.0000 
	-6	-5	14	6836	474	6064	3.25	0.27	1.0000 
	-6	-4	14	7402	539	8072	2.58	0.47	1.0000 
	6	4	-14	8146	628	8848	2.58	-0.47	1.0000 
	-6	-4	-14	7937	593	8626	2.53	-0.02	1.0000 
	4	-6	-14	7288	587	7902	2.29	0.89	1.0000 
	3	-6	-14	36	148	118	-3.36	-0.07	1.0000 
	6	3	-14	101	142	193	-2.8	1.18	1.0000 
	6	3	-14	68	79	145	-2.8	1.18	1.0000 
	6	3	14	2	63	12	-2.6	-0.42	1.0000 
	-6	-3	-14	52	146	118	-2.6	0.42	1.0000 
	2	-6	14	3736	281	4285	-2.91	-0.24	1.0000 
	2	-6	-14	3924	409	4498	-2.98	0.58	1.0000 
	6	2	14	3503	327	4043	-2.97	-1.01	1.0000 
	6	2	-14	3391	386	3947	-3.11	1.3	1.0000 
	6	2	-14	3272	323	3818	-3.11	1.3	1.0000 
	6	1	-14	8272	589	8869	2.21	-0.83	1.0000 
	6	1	-14	8821	554	9437	2.21	-0.83	1.0000 
	1	-6	14	7814	460	8555	2.72	-0.33	1.0000 
	1	-6	-14	8238	592	8972	2.6	0.64	1.0000 
	6	0	-14	28356	1210	26604	3.55	-0.32	1.0000 
	6	0	-14	27190	1164	25475	3.55	-0.32	1.0000 
	0	-6	-14	26834	1197	25075	3.67	-0.34	1.0000 
	0	-6	14	27749	1022	26044	3.51	0.56	1.0000 
	6	-1	-14	8588	575	9323	2.54	0.82	1.0000 
	6	-1	-14	9339	603	10105	2.54	0.82	1.0000 
	-1	-6	14	7859	490	8400	2.07	0.96	1.0000 
	-1	-6	-14	7842	590	8387	2.06	-0.54	1.0000 
	6	-2	-14	3710	389	4256	-2.9	0.36	1.0000 
	-2	-6	14	3754	340	4317	-2.99	-1.03	1.0000 
	6	-2	-14	3661	363	4203	-2.9	0.36	1.0000 
	-2	-6	-14	3526	395	4100	-3.14	1.14	1.0000 
	6	-3	-14	41	106	130	-3.36	-0.42	1.0000 
	-3	-6	14	132	150	234	-2.76	-0.93	1.0000 
	6	-3	-14	65	135	171	-3.36	-0.42	1.0000 
	-3	-6	-14	18	89	-4	-2.79	0.64	1.0000 
	-3	-6	-14	47	148	114	-2.79	0.64	1.0000 
	-4	-6	-14	8359	614	9096	2.64	-0.06	1.0000 
	-4	-6	-14	7457	483	8154	2.64	-0.06	1.0000 
	-4	-6	14	7288	523	7936	2.49	0.17	1.0000 
	6	-4	-14	7769	599	8441	2.43	0.85	1.0000 
	6	-4	-14	7641	523	8308	2.43	0.85	1.0000 
	6	-5	-14	7219	526	6357	3.38	1.4	1.0000 
	-5	-6	-14	7565	523	6760	3.22	-0.27	1.0000 
	-5	-6	-14	7773	427	6956	3.22	-0.27	1.0000 
	-5	-6	14	6101	446	5391	3.19	0.47	1.0000 
	6	6	-14	6118	554	6329	0.95	-0.81	1.0000 
	-6	-6	14	6680	510	6901	0.95	0.81	1.0000 
	6	-6	-14	6795	551	6931	0.48	0.81	1.0000 
	-6	-6	-14	6367	415	6592	0.97	-0.53	1.0000 
	-6	-6	-14	6479	534	6706	0.97	-0.53	1.0000 
	7	6	-14	1003	295	1163	-1.65	0.33	1.0000 
	6	-7	-14	1288	314	1515	-1.97	-0.74	1.0000 
	-7	-6	14	1282	293	1463	-1.65	-0.33	1.0000 
	7	5	-14	484	214	488	-0.04	0.61	1.0000 
	5	-7	-14	812	241	817	0.15	-0.82	1.0000 
	-7	-5	14	543	207	547	-0.04	-0.61	1.0000 
	-7	-4	14	1194	239	1071	1.23	0.02	1.0000 
	4	-7	-14	1610	292	1464	1.23	0.12	1.0000 
	7	4	-14	1262	277	1135	1.23	-0.02	1.0000 
	7	3	14	484	135	433	0.79	0.24	1.0000 
	3	-7	-14	660	202	622	0.71	1.55	1.0000 
	7	3	-14	520	193	466	0.8	-0.81	1.0000 
	7	3	-14	440	142	390	0.8	-0.81	1.0000 
	2	-7	-14	2674	337	2505	-1.15	1.12	1.0000 
	7	2	14	2802	281	2644	-1.02	-0.08	1.0000 
	7	2	-14	3021	291	2854	-1.04	0.38	1.0000 
	7	2	-14	3446	382	3268	-1.04	0.38	1.0000 
	7	1	14	4493	378	4602	-0.57	-0.72	1.0000 
	7	1	-14	3762	356	3856	-0.52	0.36	1.0000 
	1	-7	-14	3618	380	3631	-0.06	-0.12	1.0000 
	1	-7	14	3948	304	3942	0.07	0.78	1.0000 
	7	1	-14	4335	411	4436	-0.52	0.36	1.0000 
	7	0	-14	14256	869	14915	1.82	0.16	1.0000 
	0	-7	14	16711	756	17401	1.77	0.14	1.0000 
	0	-7	-14	15247	884	15907	1.76	0.09	1.0000 
	7	0	-14	16484	871	17193	1.82	0.16	1.0000 
	-1	-7	14	4079	335	4181	-0.55	-0.32	1.0000 
	7	-1	-14	4301	389	4287	0.08	-0.13	1.0000 
	-1	-7	-14	4012	403	4122	-0.61	0.84	1.0000 
	7	-1	-14	3757	373	3744	0.08	-0.13	1.0000 
	7	-2	-14	3620	344	3454	-0.96	0.67	1.0000 
	7	-2	-14	3432	382	3270	-0.96	0.67	1.0000 
	-2	-7	14	3186	320	3010	-1.05	0.22	1.0000 
	-2	-7	-14	3232	365	3053	-1.08	0.6	1.0000 
	-3	-7	-14	556	199	501	0.79	-0.32	1.0000 
	7	-3	-14	522	161	489	0.71	1.68	1.0000 
	-3	-7	-14	354	147	310	0.79	-0.32	1.0000 
	7	-3	-14	638	198	602	0.71	1.68	1.0000 
	-3	-7	14	551	181	493	0.84	0.98	1.0000 
	-4	-7	14	1075	231	972	1.08	0.02	1.0000 
	-4	-7	-14	1437	274	1323	1.01	0.2	1.0000 
	7	-4	-14	1370	225	1226	1.33	-0.01	1.0000 
	7	-4	-14	1324	262	1183	1.33	-0.01	1.0000 
	-4	-7	-14	1119	204	1019	1.01	0.2	1.0000 
	-5	-7	-14	467	146	471	-0.01	0.52	1.0000 
	-5	-7	14	475	194	473	-0.12	-0.54	1.0000 
	7	-5	-14	553	215	571	0.37	-1.12	1.0000 
	-5	-7	-14	284	188	287	-0.01	0.52	1.0000 
	-6	-7	-14	1320	301	1495	-1.62	1.29	1.0000 
	-6	-7	-14	1409	239	1590	-1.62	1.29	1.0000 
	-6	-7	14	1545	314	1759	-1.75	0.18	1.0000 
	7	-6	-14	1173	297	1382	-1.88	-0.96	1.0000 
	-7	-7	14	349	193	315	-0.63	-0.12	1.0000 
	7	7	-14	482	204	442	-0.63	0.12	1.0000 
	7	-7	-14	206	155	177	-0.83	1.18	1.0000 
	8	7	-14	163	143	206	0.94	1.13	1.0000 
	7	-8	-14	348	160	392	0.33	2.24	1.0000 
	-8	-7	14	343	176	405	0.94	-1.13	1.0000 
	-8	-6	14	757	216	735	0.22	-1.16	1.0000 
	6	-8	-14	306	179	318	-0.02	-1.76	1.0000 
	8	6	-14	437	190	420	0.22	1.16	1.0000 
	-8	-5	14	468	170	409	-0.86	1.26	1.0000 
	8	5	-14	931	264	848	-0.86	-1.26	1.0000 
	5	-8	-14	887	228	791	-1.03	-1.57	1.0000 
	4	-8	-14	106	149	155	-1.46	-0.39	1.0000 
	8	4	-14	6	99	-80	-1.5	0.57	1.0000 
	3	-8	-14	178	150	206	0.55	0.74	1.0000 
	8	3	-14	0	111	-45	-0.34	0.26	1.0000 
	8	2	14	38	78	82	2	1.28	1.0000 
	8	2	-14	54	135	100	1.78	-1.59	1.0000 
	2	-8	-14	65	127	118	1.7	1.39	1.0000 
	1	-8	-14	685	222	741	-0.73	0.66	1.0000 
	1	-8	14	943	192	988	-0.52	-0.78	1.0000 
	8	1	-14	721	230	724	-0.08	0.84	1.0000 
	8	1	14	1062	220	1058	0	-1.03	1.0000 
	8	0	-14	16	105	55	-2.82	1.96	1.0000 
	0	-8	-14	8	127	30	-2.76	1.83	1.0000 
	8	0	14	14	107	49	-2.62	-2.02	1.0000 
	0	-8	14	87	117	178	-2.69	-2.01	1.0000 
	8	-1	-14	900	239	945	-0.53	0.95	1.0000 
	-1	-8	-14	967	248	958	0.06	0.89	1.0000 
	-1	-8	14	815	206	822	-0.13	-1.05	1.0000 
	-2	-8	-14	264	148	360	1.8	-1.09	1.0000 
	8	-2	-14	95	131	168	1.96	1.44	1.0000 
	-2	-8	14	111	140	175	1.72	1.85	1.0000 
	-2	-8	-14	268	185	364	1.8	-1.09	1.0000 
	-3	-8	-14	214	106	219	-0.28	1.37	1.0000 
	8	-3	-14	131	126	155	0.57	0.71	1.0000 
	-3	-8	14	214	153	210	-0.07	0.26	1.0000 
	8	-3	-14	238	149	271	0.57	0.71	1.0000 
	-3	-8	-14	325	173	332	-0.28	1.37	1.0000 
	-4	-8	-14	7	80	-65	-1.63	0.79	1.0000 
	-4	-8	-14	81	151	122	-1.63	0.79	1.0000 
	8	-4	-14	1	127	7	-1.36	-0.49	1.0000 
	8	-4	-14	20	113	43	-1.36	-0.49	1.0000 
	-4	-8	14	129	150	171	-1.37	-0.3	1.0000 
	-5	-8	-14	979	192	907	-0.72	-1.26	1.0000 
	-5	-8	-14	813	241	747	-0.72	-1.26	1.0000 
	-5	-8	14	721	230	667	-0.64	0.76	1.0000 
	8	-5	-14	829	231	746	-0.92	-1.29	1.0000 
	-6	-8	14	366	182	341	0.38	-1.1	1.0000 
	8	-6	-14	814	244	837	-0.01	-1.73	1.0000 
	-6	-8	-14	838	238	786	0.56	1.16	1.0000 
	-6	-8	-14	781	177	731	0.56	1.16	1.0000 
	8	-7	-14	146	160	172	0.41	1.98	1.0000 
	-7	-8	14	403	193	442	0.56	-0.69	1.0000 
	8	-8	-14	18	120	-52	-0.57	2.79	1.0000 
	8	8	-14	143	92	166	-0.62	-0.21	1.0000 
	-8	-8	14	169	157	194	-0.62	0.21	1.0000 
	-9	-8	14	153	137	239	-1.9	-1.87	1.0000 
	8	-9	-14	172	149	261	-2.02	-0.27	1.0000 
	9	8	-14	16	90	-30	-1.9	1.87	1.0000 
	7	-9	-14	634	220	755	-1.48	-0.56	1.0000 
	-9	-7	14	514	158	562	-0.76	-1.24	1.0000 
	9	7	-14	92	115	110	-0.76	1.24	1.0000 
	-9	-6	14	3291	427	3483	1.15	0.46	1.0000 
	9	6	-14	3683	505	3886	1.15	-0.46	1.0000 
	6	-9	-14	3320	444	3532	1.33	-1.54	1.0000 
	5	-9	-14	6199	552	6305	-0.53	1.01	1.0000 
	9	5	-14	6127	595	6425	-1.13	-1.38	1.0000 
	-9	-5	14	6113	509	6411	-1.13	1.38	1.0000 
	4	-9	-14	5007	459	4806	-1.1	1.48	1.0000 
	9	4	-14	4235	498	3976	-1.36	0.1	1.0000 
	9	3	-14	2555	399	2620	-0.44	0.32	1.0000 
	3	-9	-14	2037	334	2122	-0.59	-0.76	1.0000 
	2	-9	-14	50	113	49	-0.07	0.28	1.0000 
	9	2	14	1	57	-61	0.48	-0.43	1.0000 
	9	2	-14	151	157	145	0.32	-0.18	1.0000 
	1	-9	-14	3082	377	3037	-0.41	1.1	1.0000 
	9	1	-14	2088	348	2099	-0.02	0.87	1.0000 
	1	-9	14	2828	303	2805	-0.31	-1.34	1.0000 
	9	1	14	2900	362	2911	-0.07	-1.15	1.0000 
	0	-9	-14	2339	359	2667	-2.31	0.83	1.0000 
	9	0	-14	2376	375	2689	-2.18	0.73	1.0000 
	0	-9	14	2613	313	2940	-2.17	-0.67	1.0000 
	9	0	14	2580	371	2902	-2.16	-0.77	1.0000 
	-1	-9	-14	2818	369	2830	-0.05	1.11	1.0000 
	9	-1	14	2574	373	2542	-0.35	-1.13	1.0000 
	9	-1	-14	3217	404	3173	-0.43	1.36	1.0000 
	-1	-9	14	3181	340	3169	-0.18	-0.92	1.0000 
	-2	-9	14	146	136	139	0.28	0.08	1.0000 
	-2	-9	-14	0	101	-31	0.34	0.22	1.0000 
	-2	-9	-14	189	146	173	0.34	0.22	1.0000 
	9	-2	-14	38	115	34	-0.12	0.89	1.0000 
	9	-3	-14	1761	315	1839	-0.58	-0.69	1.0000 
	-3	-9	14	2428	334	2484	-0.38	0.11	1.0000 
	-3	-9	-14	2567	359	2653	-0.58	0.47	1.0000 
	-3	-9	-14	2359	329	2441	-0.58	0.47	1.0000 
	9	-4	-14	4931	443	4721	-1.12	1.22	1.0000 
	-4	-9	-14	5267	409	4953	-1.5	0.31	1.0000 
	-4	-9	14	4372	397	4109	-1.28	1.07	1.0000 
	-4	-9	-14	4523	442	4232	-1.5	0.31	1.0000 
	9	-4	-14	5305	478	5088	-1.12	1.22	1.0000 
	-5	-9	14	6825	538	7173	-1.24	1.58	1.0000 
	9	-5	-14	6675	581	6786	-0.52	0.94	1.0000 
	-5	-9	-14	7004	579	7305	-1.08	-1.17	1.0000 
	-5	-9	-14	6067	475	6347	-1.08	-1.17	1.0000 
	9	-6	-14	3191	457	3392	1.27	-1.24	1.0000 
	-6	-9	14	3339	436	3570	1.23	-0.88	1.0000 
	-6	-9	-14	3519	429	3791	1.56	-0.72	1.0000 
	-6	-9	-14	3359	340	3625	1.56	-0.72	1.0000 
	-7	-9	14	513	215	536	-0.42	-2.04	1.0000 
	-7	-9	-14	304	126	321	-0.41	1.11	1.0000 
	9	-7	-14	441	215	550	-1.61	-0.33	1.0000 
	-8	-9	14	60	170	104	-1.67	-1.55	1.0000 
	9	-8	-14	8	83	-125	-1.92	-0.28	1.0000 
	-9	-9	14	798	216	814	0.12	-0.32	1.0000 
	9	-9	-14	607	179	637	0.46	-0.23	1.0000 
	8	-10	-14	482	186	436	-0.65	-1.18	1.0000 
	-10	-8	14	375	131	346	-0.48	0.25	1.0000 
	10	8	-14	351	186	323	-0.48	-0.25	1.0000 
	7	-10	-14	525	163	480	-0.57	-1.44	1.0000 
	-10	-7	14	858	217	812	-0.45	1.61	1.0000 
	10	7	-14	435	174	401	-0.45	-1.61	1.0000 
	-10	-6	14	4946	448	5000	-0.03	1.91	1.0000 
	10	6	-14	2421	441	2457	-0.03	-1.91	1.0000 
	6	-10	-14	4519	452	4434	0.6	-1.54	1.0000 
	10	5	-14	6238	593	5995	-1.31	2.22	1.0000 
	5	-10	-14	6095	517	5846	-1.04	-0.41	1.0000 
	4	-10	-14	3754	412	3872	-0.85	2.74	1.0000 
	10	4	-14	4258	534	4335	-0.6	2.77	1.0000 
	10	3	-14	458	202	454	-0.08	0.19	1.0000 
	3	-10	-14	884	236	862	-0.39	1.11	1.0000 
	2	-10	-14	397	162	306	-1.54	-0.78	1.0000 
	10	2	14	355	127	297	-1.34	-1.45	1.0000 
	10	2	-14	414	191	349	-1.38	1.4	1.0000 
	10	1	14	3267	404	3210	0.35	0.13	1.0000 
	1	-10	-14	3894	432	3915	-0.05	-0.54	1.0000 
	10	1	-14	3964	476	3948	0.14	-0.42	1.0000 
	10	0	-14	3009	443	3311	2.08	-2.41	1.0000 
	0	-10	-14	3168	407	3435	1.85	-2.58	1.0000 
	10	0	14	2832	404	3095	1.91	2.47	1.0000 
	0	-10	14	3255	340	3533	1.86	2.25	1.0000 
	-1	-10	-14	2953	384	2936	0.16	-0.45	1.0000 
	10	-1	14	2840	404	2865	-0.12	0.33	1.0000 
	-1	-10	-14	3349	397	3331	0.16	-0.45	1.0000 
	-1	-10	14	3242	353	3208	0.22	0.13	1.0000 
	10	-1	-14	3547	440	3553	0.03	-0.48	1.0000 
	-2	-10	-14	381	150	320	-1.31	1.17	1.0000 
	-2	-10	-14	325	181	268	-1.31	1.17	1.0000 
	-2	-10	14	431	178	372	-1.33	-1.75	1.0000 
	10	-2	-14	321	148	241	-1.53	-0.55	1.0000 
	10	-2	14	567	213	452	-1.69	0.21	1.0000 
	10	-3	-14	745	223	737	-0.26	1.24	1.0000 
	-3	-10	14	391	178	379	-0.18	0.34	1.0000 
	10	-3	14	684	248	661	-0.45	-1.17	1.0000 
	-3	-10	-14	672	232	657	-0.21	0.22	1.0000 
	-3	-10	-14	751	203	736	-0.21	0.22	1.0000 
	-4	-10	14	4500	468	4575	-0.4	-0.28	1.0000 
	-4	-10	-14	4505	407	4577	-0.58	3.16	1.0000 
	10	-4	-14	3656	410	3796	-0.97	2.53	1.0000 
	10	-5	-14	5470	516	5221	-1.1	-0.44	1.0000 
	-5	-10	14	6121	495	5908	-1.19	-2.21	1.0000 
	-5	-10	-14	6786	494	6563	-1.19	2.25	1.0000 
	10	-6	-14	4155	504	4074	0.54	-1.1	1.0000 
	-6	-10	-14	4892	393	4933	0.01	-1.76	1.0000 
	-6	-10	14	4214	480	4202	-0.03	-0.99	1.0000 
	-7	-10	-14	629	153	608	-0.18	-1.51	1.0000 
	10	-7	-14	569	211	509	-0.77	-1.22	1.0000 
	-7	-10	14	718	233	697	-0.2	0.91	1.0000 
	10	-8	-14	480	197	429	-0.76	-1.46	1.0000 
	-8	-10	14	29	136	19	-0.47	1.23	1.0000 
	8	-11	-14	66	95	151	1.71	-2.22	1.0000 
	7	-11	-14	965	244	936	0.36	-0.6	1.0000 
	-11	-7	14	969	231	949	0.39	1.8	1.0000 
	6	-11	-14	4154	458	3728	-2.43	1.38	1.0000 
	11	6	-14	2652	442	2378	-1.87	0.36	1.0000 
	11	5	-14	5139	606	4968	0.65	2.07	1.0000 
	5	-11	-14	5869	509	5818	0.2	0.22	1.0000 
	4	-11	-14	3397	429	3569	1.01	-0.38	1.0000 
	11	4	-14	3817	522	3962	0.66	1.26	1.0000 
	3	-11	-14	406	175	498	-1.32	-1.32	1.0000 
	11	3	-14	505	228	634	-1.79	-0.23	1.0000 
	2	-11	-14	331	153	391	-0.85	-1.65	1.0000 
	11	2	14	395	187	437	-0.66	0.34	1.0000 
	11	2	-14	515	203	547	-0.51	0.47	1.0000 
	11	1	-14	4246	485	4505	1.34	-0.39	1.0000 
	1	-11	-14	3702	431	3864	0.93	-0.59	1.0000 
	11	1	14	3264	428	3475	1.24	0.34	1.0000 
	11	0	14	4750	452	4244	2.6	0.67	1.0000 
	11	0	-14	4735	510	4245	2.52	-0.63	1.0000 
	0	-11	14	5725	403	5173	2.57	0.54	1.0000 
	0	-11	-14	5315	440	4825	2.42	-1.02	1.0000 
	-1	-11	14	3872	418	4122	1.35	0.24	1.0000 
	11	-1	14	3689	478	3862	0.99	0.56	1.0000 
	-1	-11	-14	3666	434	3870	1.15	-0.52	1.0000 
	11	-1	-14	3833	483	4036	1.11	-0.3	1.0000 
	11	-2	14	426	204	494	-0.86	1.51	1.0000 
	11	-2	-14	393	165	453	-0.73	-1.79	1.0000 
	-2	-11	14	462	179	497	-0.56	-0.22	1.0000 
	-2	-11	-14	528	165	565	-0.53	0.02	1.0000 
	11	-3	14	591	225	706	-1.4	1.13	1.0000 
	-3	-11	-14	563	182	690	-1.65	-0.53	1.0000 
	11	-3	-14	486	208	593	-1.4	-1.36	1.0000 
	-3	-11	14	778	242	924	-1.67	0.11	1.0000 
	11	-4	-14	3322	453	3485	0.95	-0.2	1.0000 
	-4	-11	14	3915	459	4098	0.74	-2.09	1.0000 
	-4	-11	-14	3588	422	3754	0.8	1.18	1.0000 
	11	-4	14	2986	498	3160	1.06	0.18	1.0000 
	-5	-11	-14	5088	432	4884	0.83	1.93	1.0000 
	-5	-11	14	4676	434	4471	0.84	-2.48	1.0000 
	11	-5	-14	4918	500	4862	0.24	0.32	1.0000 
	11	-5	14	5205	636	5135	0.25	-0.94	1.0000 
	11	-6	-14	3977	490	3558	-2.43	1.27	1.0000 
	-6	-11	14	3137	423	2861	-1.69	-0.08	1.0000 
	-6	-11	-14	4219	425	3874	-1.87	0.49	1.0000 
	-7	-11	-14	987	195	959	0.41	-1.24	1.0000 
	7	-12	-14	190	137	197	0.18	-0.47	1.0000 
	12	4	-14	817	236	801	0.36	-1.45	1.0000 
	12	3	-14	3	113	5	0.66	-0.8	1.0000 
	2	-12	-14	135	170	208	1.88	-0.71	1.0000 
	12	2	-14	12	100	34	1.52	-1.48	1.0000 
	12	2	14	26	71	56	1.54	1.26	1.0000 
	12	1	14	224	132	225	0.08	0.71	1.0000 
	1	-12	-14	144	95	130	0.53	-1.02	1.0000 
	12	1	-14	191	122	189	0.11	-0.55	1.0000 
	12	0	-14	218	126	183	-0.91	0.41	1.0000 
	12	0	14	241	165	215	-0.7	-0.6	1.0000 
	0	-12	-14	441	171	393	-0.9	0.45	1.0000 
	-1	-12	14	198	96	194	0.17	0.57	1.0000 
	-1	-12	-14	284	115	292	-0.07	-0.66	1.0000 
	12	-1	-14	532	186	499	0.61	-0.75	1.0000 
	12	-1	14	541	190	503	0.68	0.8	1.0000 
	-2	-12	14	220	144	306	1.63	1.27	1.0000 
	12	-2	14	53	82	108	2.06	1.06	1.0000 
	12	-2	-14	8	103	-18	1.87	-0.38	1.0000 
	-2	-12	-14	184	129	258	1.51	-1.3	1.0000 
	12	-3	14	277	181	299	0.4	1.38	1.0000 
	12	-3	-14	176	139	190	0.31	-1.64	1.0000 
	-3	-12	14	1	122	-8	0.78	0.12	1.0000 
	-3	-12	-14	181	123	217	0.85	-1.04	1.0000 
	12	-4	14	546	241	543	0.32	2.3	1.0000 
	-4	-12	14	951	234	916	0.31	-1.43	1.0000 
	-4	-12	-14	790	187	774	0.4	-1.67	1.0000 
	12	-4	-14	380	216	374	0.33	-2.13	1.0000 
	-5	-12	14	638	197	551	-1.19	0.09	1.0000 
	-5	-12	-14	829	184	737	-1.08	-0.14	1.0000 
	12	-5	14	1333	364	1224	-1.11	-0.82	1.0000 
	-6	-12	-14	430	125	610	-2.72	1.18	1.0000 
	13	1	14	128	111	138	-0.2	0.58	1.0000 
	13	1	-14	224	157	241	-0.34	-0.26	1.0000 
	13	0	14	326	119	289	-0.84	-1.17	1.0000 
	13	0	-14	974	251	912	-0.8	1	1.0000 
	13	-1	14	80	124	86	-0.16	0.47	1.0000 
	-1	-13	14	367	145	385	-0.28	0.23	1.0000 
	13	-1	-14	89	120	99	-0.24	-0.65	1.0000 
	-2	-13	14	217	148	316	1.78	1.65	1.0000 
	13	-2	-14	74	137	125	1.67	0.35	1.0000 
	13	-2	14	91	148	150	1.81	0.63	1.0000 
	13	-3	-14	96	154	128	0.83	0.94	1.0000 
	-3	-13	14	209	121	265	1.17	0.76	1.0000 
	13	-4	-14	122	185	211	-2.2	-0.76	1.0000 
	-1	1	-15	948	185	1273	-3.25	-0.32	1.0000 
	1	1	-15	829	179	1105	3.03	0.39	1.0000 
	1	-1	-15	724	186	1009	-3.28	0.11	1.0000 
	-1	-1	-15	919	214	1216	3.08	0.1	1.0000 
	-2	-1	-15	6413	431	6214	0.86	-0.39	1.0000 
	1	-2	-15	6112	423	5848	-1.11	0.46	1.0000 
	2	1	-15	6433	390	6207	0.98	-0.38	1.0000 
	-1	2	-15	6477	385	6169	-1.27	0.39	1.0000 
	2	-1	-15	6197	413	5903	-1.23	0.48	1.0000 
	-1	-2	-15	7052	462	6847	0.85	-0.4	1.0000 
	1	2	-15	6349	384	6146	0.89	-0.36	1.0000 
	-2	1	-15	6846	428	6574	-1.09	0.33	1.0000 
	-2	-2	-15	32867	1386	32828	-0.06	-0.21	1.0000 
	2	2	-15	33406	1294	33348	-0.12	0.2	1.0000 
	-2	2	-15	31462	1311	32024	-1.02	0.53	1.0000 
	2	-2	-15	31050	1358	31446	-0.71	0.71	1.0000 
	2	-3	-15	27167	1162	26357	-1.68	0.47	1.0000 
	-2	3	-15	27748	1075	26749	-2.07	0.8	1.0000 
	2	-3	-15	27996	1040	27174	-1.68	0.47	1.0000 
	-3	-2	-15	24945	1150	24559	0.92	1.45	1.0000 
	3	2	-15	23931	1045	23486	1.08	1.66	1.0000 
	3	1	-15	3983	325	3641	-1.9	0.49	1.0000 
	3	1	-15	4745	327	4371	-1.9	0.49	1.0000 
	-1	3	-15	5094	310	4737	1.67	-0.37	1.0000 
	-3	-1	-15	4842	370	4438	-2.04	0.55	1.0000 
	1	-3	-15	4285	356	3950	1.71	-0.48	1.0000 
	1	3	-15	5626	312	5204	-1.96	0.45	1.0000 
	3	-1	-15	4124	305	3798	1.7	-0.4	1.0000 
	3	-1	-15	4104	338	3779	1.7	-0.4	1.0000 
	-1	-3	-15	5033	396	4598	-2.16	0.65	1.0000 
	-3	1	-15	3777	322	3478	1.63	-0.33	1.0000 
	2	3	-15	28318	1072	27897	0.93	1.39	1.0000 
	-2	-3	-15	27011	1192	26608	0.93	1.66	1.0000 
	3	-2	-15	25764	1173	25050	-1.54	0.66	1.0000 
	-3	2	-15	25734	1108	24768	-2.07	0.61	1.0000 
	3	-2	-15	27385	1101	26649	-1.54	0.66	1.0000 
	3	3	-15	29876	1190	31135	2.29	1.9	1.0000 
	3	-3	-15	27792	1322	29240	-2.92	-0.99	1.0000 
	3	-3	-15	28354	1198	29816	-2.92	-0.99	1.0000 
	-3	-3	-15	27398	1304	28612	2.3	1.92	1.0000 
	3	-4	-15	14515	815	14503	0.05	-2.27	1.0000 
	4	3	-15	14450	699	14879	-1.2	-0.3	1.0000 
	-4	-3	-15	14146	814	14634	-1.39	-0.59	1.0000 
	4	3	-15	15101	830	15540	-1.2	-0.3	1.0000 
	4	2	-15	10046	578	10945	2.96	-0.39	1.0000 
	2	-4	15	10666	489	11670	-3.22	0.96	1.0000 
	2	-4	-15	9164	634	10078	-3.16	-0.83	1.0000 
	4	2	-15	10091	659	10992	2.96	-0.39	1.0000 
	-4	-2	-15	10586	658	11416	2.65	-0.09	1.0000 
	-4	-1	-15	1575	243	1500	0.58	0.86	1.0000 
	-1	4	-15	1717	183	1682	-0.33	-0.48	1.0000 
	1	-4	-15	1162	230	1126	-0.38	-0.21	1.0000 
	4	1	-15	1437	208	1380	0.46	0.64	1.0000 
	4	1	-15	1759	249	1696	0.46	0.64	1.0000 
	1	-4	15	1830	187	1794	-0.33	0.48	1.0000 
	-1	-4	-15	1687	269	1622	0.49	0.69	1.0000 
	-4	1	-15	1673	236	1611	-0.55	-0.42	1.0000 
	-1	-4	15	2152	229	2062	0.59	-0.94	1.0000 
	4	-1	-15	1592	242	1571	-0.2	-0.19	1.0000 
	1	4	-15	1750	172	1669	0.59	0.94	1.0000 
	4	-1	-15	1659	217	1637	-0.2	-0.19	1.0000 
	2	4	-15	10737	545	11617	2.8	-0.29	1.0000 
	-2	-4	15	10666	584	11543	2.8	0.29	1.0000 
	-2	-4	-15	11591	703	12510	2.81	-0.21	1.0000 
	4	-2	-15	9794	593	10709	-3.06	-0.78	1.0000 
	4	-2	-15	10701	672	11656	-3.06	-0.78	1.0000 
	-3	-4	15	14464	727	14949	-1.37	0.86	1.0000 
	4	-3	-15	14866	722	14905	0.18	-1.92	1.0000 
	4	-3	-15	14785	816	14824	0.18	-1.92	1.0000 
	-3	-4	-15	15892	845	16328	-1.16	-0.26	1.0000 
	-4	-4	-15	4065	288	3992	-0.46	1.04	1.0000 
	-4	-4	-15	3787	390	3716	-0.46	1.04	1.0000 
	-4	-4	15	4281	356	4209	-0.45	-1.07	1.0000 
	4	-4	-15	3791	388	3824	-0.14	0.57	1.0000 
	-5	-4	-15	41	66	106	2.56	1.08	1.0000 
	5	4	-15	23	131	76	2.62	1.07	1.0000 
	4	-5	-15	18	114	-50	-2.51	1.4	1.0000 
	-5	-4	-15	21	139	71	2.56	1.08	1.0000 
	-5	-4	15	85	148	175	2.62	-1.07	1.0000 
	-5	-3	-15	1247	249	1191	-0.54	-0.72	1.0000 
	3	-5	-15	846	229	831	0.21	-1.45	1.0000 
	5	3	-15	1097	166	1055	-0.43	-0.77	1.0000 
	5	3	-15	1082	243	1040	-0.43	-0.77	1.0000 
	5	2	-15	36	129	123	2.83	-2.48	1.0000 
	-5	-2	-15	75	146	169	2.47	-2.13	1.0000 
	2	-5	-15	4	116	50	-3.1	-2.65	1.0000 
	5	2	-15	3	72	30	2.83	-2.48	1.0000 
	2	-5	15	46	71	-2	-3.19	3.23	1.0000 
	5	1	-15	112	116	86	1.63	-1.79	1.0000 
	-5	-1	-15	15	113	1	1.63	-1.67	1.0000 
	5	1	-15	13	76	-11	1.63	-1.79	1.0000 
	1	-5	-15	209	142	153	-1.63	0.72	1.0000 
	1	-5	15	119	88	72	-1.65	-0.22	1.0000 
	5	-1	-15	6	86	-12	-1.53	0.47	1.0000 
	-1	-5	-15	262	158	237	1.61	-1.95	1.0000 
	-1	-5	15	284	129	238	1.72	1.59	1.0000 
	5	-1	-15	114	82	73	-1.53	0.47	1.0000 
	-2	-5	-15	76	154	188	2.73	-2.43	1.0000 
	5	-2	-15	45	136	162	-3.17	-2.9	1.0000 
	5	-2	-15	37	92	147	-3.17	-2.9	1.0000 
	-2	-5	15	30	121	96	2.61	2.03	1.0000 
	5	-3	-15	770	208	747	0.3	-1.16	1.0000 
	-3	-5	-15	794	218	767	-0.32	-0.5	1.0000 
	5	-3	-15	1268	196	1239	0.3	-1.16	1.0000 
	-3	-5	15	1016	219	959	-0.62	1.01	1.0000 
	-4	-5	-15	10	88	48	2.61	1.39	1.0000 
	5	-4	-15	53	126	123	-2.41	1.98	1.0000 
	-4	-5	15	16	126	-51	2.56	-0.73	1.0000 
	-4	-5	-15	30	152	88	2.61	1.39	1.0000 
	5	-5	-15	424	161	217	-3.93	1.21	1.0000 
	-5	-5	-15	342	104	199	2.93	0.87	1.0000 
	5	5	-15	262	149	136	3.01	0.75	1.0000 
	-5	-5	15	401	173	241	3.01	-0.75	1.0000 
	-5	-5	-15	367	160	218	2.93	0.87	1.0000 
	6	5	-15	24	116	20	-0.28	-0.11	1.0000 
	5	-6	-15	75	140	87	-0.43	0.26	1.0000 
	-6	-5	15	135	161	125	-0.28	0.11	1.0000 
	-6	-5	-15	1	115	-135	-0.34	0.33	1.0000 
	4	-6	-15	765	203	455	-4.18	-0.82	1.0000 
	6	4	-15	745	190	461	3.86	-0.58	1.0000 
	-6	-4	-15	1157	236	811	3.73	0.24	1.0000 
	-6	-4	15	1218	225	845	3.86	0.58	1.0000 
	3	-6	-15	563	231	823	-3.27	-0.45	1.0000 
	-6	-3	-15	939	277	1284	3.54	0.47	1.0000 
	6	3	-15	1293	217	1704	3.63	0.49	1.0000 
	6	3	-15	1604	322	2059	3.63	0.49	1.0000 
	2	-6	-15	4141	402	4219	0.47	-1.19	1.0000 
	6	2	-15	4045	400	4130	-0.44	0	1.0000 
	6	2	-15	4261	348	4348	-0.44	0	1.0000 
	6	2	15	3700	323	3808	-0.61	0.34	1.0000 
	6	1	-15	2887	280	2665	-1.35	-2.23	1.0000 
	1	-6	-15	3305	361	3142	0.97	0.16	1.0000 
	6	1	-15	2159	298	1966	-1.35	-2.23	1.0000 
	1	-6	15	3013	245	2895	0.73	-0.11	1.0000 
	-1	-6	-15	3168	357	2910	-1.51	-2.42	1.0000 
	6	-1	-15	2956	321	2835	0.74	-0.11	1.0000 
	6	-1	-15	2523	312	2412	0.74	-0.11	1.0000 
	-1	-6	15	3153	280	2914	-1.39	1.99	1.0000 
	-2	-6	15	3945	345	4047	-0.56	0.29	1.0000 
	6	-2	-15	3674	372	3723	0.33	-1.04	1.0000 
	6	-2	-15	3913	353	3964	0.33	-1.04	1.0000 
	-2	-6	-15	4379	418	4477	-0.49	0.03	1.0000 
	6	-3	-15	1091	270	1437	-3.25	-0.22	1.0000 
	-3	-6	15	773	229	1096	3.58	-0.18	1.0000 
	6	-3	-15	993	223	1324	-3.25	-0.22	1.0000 
	-3	-6	-15	986	275	1356	3.74	0.92	1.0000 
	-4	-6	15	913	210	597	3.84	0.39	1.0000 
	6	-4	-15	1253	229	845	-4.19	-0.63	1.0000 
	-4	-6	-15	1685	273	1242	3.91	0.14	1.0000 
	6	-4	-15	1034	165	667	-4.19	-0.63	1.0000 
	-4	-6	-15	1255	188	877	3.91	0.14	1.0000 
	-5	-6	15	177	158	165	-0.31	-0.19	1.0000 
	6	-5	-15	1	111	-15	-0.53	0.41	1.0000 
	-5	-6	-15	0	54	-93	-0.19	-0.1	1.0000 
	-5	-6	-15	155	161	148	-0.19	-0.1	1.0000 
	-6	-6	15	1565	277	1207	-3.21	0.24	1.0000 
	-6	-6	-15	1848	294	1472	-3.18	0.91	1.0000 
	6	-6	-15	1496	279	1226	2.65	1.78	1.0000 
	6	6	-15	1330	284	1002	-3.21	-0.24	1.0000 
	-7	-6	15	2423	387	2846	-2.66	1.09	1.0000 
	6	-7	-15	2873	432	3192	2.02	1.51	1.0000 
	7	6	-15	2558	434	2992	-2.66	-1.09	1.0000 
	7	5	-15	119	166	188	-1.88	-0.13	1.0000 
	-7	-5	15	38	152	81	-1.88	0.13	1.0000 
	5	-7	-15	239	177	343	2.05	0.2	1.0000 
	4	-7	-15	1715	332	1974	-1.82	-1.88	1.0000 
	7	4	-15	1975	357	2179	1.57	0.93	1.0000 
	-7	-4	15	2277	342	2495	1.57	-0.93	1.0000 
	3	-7	-15	3518	385	2917	-3.54	-0.2	1.0000 
	7	3	-15	3985	411	3419	3.06	-0.6	1.0000 
	7	3	-15	3925	300	3363	3.06	-0.6	1.0000 
	2	-7	-15	5208	453	5033	0.71	1.33	1.0000 
	7	2	-15	6615	445	6435	-0.8	-0.54	1.0000 
	7	2	15	5882	423	5708	-0.86	0.91	1.0000 
	7	2	-15	5748	492	5581	-0.8	-0.54	1.0000 
	1	-7	15	3885	317	4102	1.13	-0.28	1.0000 
	1	-7	-15	4185	416	4460	1.4	0.02	1.0000 
	7	1	-15	4095	376	4381	-1.49	-0.24	1.0000 
	7	1	-15	3989	411	4271	-1.49	-0.24	1.0000 
	7	1	15	3999	374	4320	-1.68	0.15	1.0000 
	-1	-7	-15	4205	435	4514	-1.58	-0.18	1.0000 
	-1	-7	15	3784	343	4079	-1.58	0	1.0000 
	7	-1	-15	4199	411	4452	1.29	-0.03	1.0000 
	7	-1	-15	3909	392	4154	1.29	-0.03	1.0000 
	-2	-7	15	5768	417	5618	-0.74	0.69	1.0000 
	7	-2	-15	6029	481	5856	0.65	1.24	1.0000 
	7	-2	-15	5883	458	5712	0.65	1.24	1.0000 
	-2	-7	-15	6414	510	6248	-0.77	-0.74	1.0000 
	7	-3	-15	2940	351	2406	-3.46	-0.1	1.0000 
	-3	-7	15	2551	297	2113	2.97	0.69	1.0000 
	-3	-7	-15	4113	400	3522	3.15	-0.57	1.0000 
	-3	-7	-15	3763	330	3199	3.15	-0.57	1.0000 
	7	-3	-15	3552	316	2963	-3.46	-0.1	1.0000 
	-4	-7	15	2013	311	2184	1.31	-0.76	1.0000 
	-4	-7	-15	2502	301	2713	1.5	1.54	1.0000 
	7	-4	-15	2210	357	2485	-1.72	-1.67	1.0000 
	7	-4	-15	2160	304	2431	-1.72	-1.67	1.0000 
	-4	-7	-15	1659	323	1831	1.5	1.54	1.0000 
	7	-5	-15	9	127	-59	1.96	0.29	1.0000 
	-5	-7	-15	28	154	65	-1.87	0.69	1.0000 
	-5	-7	15	126	149	195	-1.84	0.07	1.0000 
	-5	-7	-15	58	98	108	-1.87	0.69	1.0000 
	-6	-7	-15	2611	393	2917	-1.98	0.52	1.0000 
	7	-6	-15	2835	421	3135	1.91	1.22	1.0000 
	-6	-7	15	3152	416	3499	-2.01	0.05	1.0000 
	-6	-7	-15	3562	318	3918	-1.98	0.52	1.0000 
	-7	-7	15	7534	559	7428	-0.61	-2.09	1.0000 
	7	7	-15	6200	588	6103	-0.61	2.09	1.0000 
	7	-7	-15	6966	587	7048	-0.35	-0.37	1.0000 
	8	7	-15	5791	564	5623	0.64	1.48	1.0000 
	7	-8	-15	5817	521	5522	-1.52	-1.91	1.0000 
	-8	-7	15	5744	504	5577	0.64	-1.48	1.0000 
	8	6	-15	1430	332	1409	-0.12	-0.73	1.0000 
	-8	-6	15	1618	305	1596	-0.12	0.73	1.0000 
	6	-8	-15	1221	305	1307	-0.84	-0.36	1.0000 
	8	5	-15	391	209	366	-0.43	-0.56	1.0000 
	5	-8	-15	268	179	246	0.48	0.5	1.0000 
	-8	-5	15	301	147	279	-0.43	0.56	1.0000 
	8	4	-15	3404	453	3518	-0.71	0.93	1.0000 
	4	-8	-15	3687	415	3960	1.55	1.1	1.0000 
	3	-8	-15	7212	563	7017	0.74	0.49	1.0000 
	8	3	-15	8091	620	7772	-1.2	0.02	1.0000 
	2	-8	-15	7901	591	7759	-0.49	-0.61	1.0000 
	8	2	-15	9190	672	9331	-0.52	-0.35	1.0000 
	8	2	-15	8800	574	8938	-0.52	-0.35	1.0000 
	8	2	15	8515	576	8671	-0.6	0.46	1.0000 
	1	-8	15	5061	366	5129	-0.33	-0.26	1.0000 
	8	1	-15	5563	445	5662	0.46	0.28	1.0000 
	8	1	15	5093	433	5190	0.45	-0.05	1.0000 
	8	1	-15	4745	466	4836	0.46	0.28	1.0000 
	1	-8	-15	5087	467	5153	-0.3	-0.24	1.0000 
	8	-1	-15	5146	449	5197	-0.23	-0.05	1.0000 
	-1	-8	-15	5454	478	5552	0.46	0.36	1.0000 
	-1	-8	15	5090	397	5191	0.47	-0.01	1.0000 
	8	-1	-15	4793	449	4842	-0.23	-0.05	1.0000 
	-2	-8	-15	8206	549	8372	-0.62	-0.16	1.0000 
	-2	-8	-15	8224	618	8390	-0.62	-0.16	1.0000 
	8	-2	-15	8912	624	8785	-0.4	-0.65	1.0000 
	-2	-8	15	8223	526	8329	-0.45	0.73	1.0000 
	8	-2	-15	8579	600	8454	-0.4	-0.65	1.0000 
	-3	-8	-15	6582	530	6276	-1.28	-0.04	1.0000 
	-3	-8	-15	7737	496	7405	-1.28	-0.04	1.0000 
	8	-3	-15	7554	544	7347	0.76	0.52	1.0000 
	8	-3	-15	7788	583	7578	0.76	0.52	1.0000 
	-3	-8	15	6813	483	6511	-1.25	0.19	1.0000 
	-4	-8	15	3186	383	3335	-0.94	-0.96	1.0000 
	-4	-8	-15	3752	449	3919	-0.96	0.98	1.0000 
	8	-4	-15	3334	433	3620	1.71	1.34	1.0000 
	-4	-8	-15	2991	346	3140	-0.96	0.98	1.0000 
	8	-4	-15	3353	367	3640	1.71	1.34	1.0000 
	-5	-8	15	77	150	62	-0.59	0.62	1.0000 
	-5	-8	-15	29	109	17	-0.84	0.19	1.0000 
	-5	-8	-15	203	163	169	-0.84	0.19	1.0000 
	8	-5	-15	342	163	311	0.6	0.71	1.0000 
	-6	-8	-15	1698	259	1693	0.06	-1.32	1.0000 
	-6	-8	-15	1757	327	1752	0.06	-1.32	1.0000 
	8	-6	-15	1018	302	1097	-0.84	-0.28	1.0000 
	-6	-8	15	1704	319	1685	-0.11	0.59	1.0000 
	-7	-8	15	5569	487	5234	1.38	-2.19	1.0000 
	8	-7	-15	6394	571	6073	-1.62	-2.29	1.0000 
	-8	-8	15	2280	395	2522	1.37	-2.32	1.0000 
	8	-8	-15	3286	456	3486	-1.3	-1.58	1.0000 
	9	8	-15	577	199	529	0.74	-0.43	1.0000 
	-9	-8	15	817	215	760	0.74	0.43	1.0000 
	8	-9	-15	804	198	705	-1.03	1.72	1.0000 
	9	7	-15	1652	382	1715	0.61	-1.24	1.0000 
	7	-9	-15	1712	347	1839	-0.99	0.16	1.0000 
	-9	-7	15	1233	287	1287	0.61	1.24	1.0000 
	6	-9	-15	9	104	-24	-0.55	-1.91	1.0000 
	-9	-6	15	31	111	37	0.25	-2.06	1.0000 
	9	6	-15	164	131	190	0.25	2.06	1.0000 
	9	5	-15	679	251	633	0.73	2.67	1.0000 
	-9	-5	15	638	201	593	0.73	-2.67	1.0000 
	5	-9	-15	732	225	686	-0.75	-2.56	1.0000 
	4	-9	-15	1983	347	1959	0.15	0.58	1.0000 
	9	4	-15	2328	394	2332	-0.05	-1.02	1.0000 
	9	3	-15	4705	492	4939	-1.14	0.11	1.0000 
	3	-9	-15	3472	430	3691	1.33	1.93	1.0000 
	9	2	15	4073	370	3985	-0.48	-0.22	1.0000 
	2	-9	-15	3087	395	3052	0.18	-0.4	1.0000 
	9	2	-15	4479	461	4358	-0.64	0.38	1.0000 
	1	-9	-15	2183	326	1951	-1.73	0.45	1.0000 
	9	1	-15	2690	379	2517	1.07	-1.56	1.0000 
	9	1	15	2014	297	1851	1.18	1.36	1.0000 
	-1	-9	15	2361	302	2199	1.07	1.56	1.0000 
	9	-1	-15	2908	375	2642	-1.72	0.54	1.0000 
	9	-1	15	2407	353	2167	-1.71	-0.41	1.0000 
	-1	-9	-15	3042	370	2854	1.1	-1.37	1.0000 
	-2	-9	-15	3976	368	3862	-0.65	0.49	1.0000 
	9	-2	-15	4142	418	4112	0.16	0	1.0000 
	-2	-9	15	3678	384	3563	-0.64	-0.04	1.0000 
	-2	-9	-15	4055	440	3940	-0.65	0.49	1.0000 
	9	-2	-15	3966	415	3937	0.16	0	1.0000 
	-3	-9	-15	3928	430	4164	-1.23	-0.08	1.0000 
	9	-3	-15	3900	456	4105	1.19	1.97	1.0000 
	-3	-9	15	3824	377	4036	-1.14	-0.06	1.0000 
	9	-3	-15	4143	434	4355	1.19	1.97	1.0000 
	-3	-9	-15	4200	391	4443	-1.23	-0.08	1.0000 
	9	-4	-15	2249	335	2217	0.19	0.6	1.0000 
	-4	-9	-15	1994	353	1999	-0.07	-1.34	1.0000 
	-4	-9	15	2442	350	2483	0.21	0.91	1.0000 
	9	-4	-15	1916	332	1887	0.19	0.6	1.0000 
	-4	-9	-15	2175	318	2181	-0.07	-1.34	1.0000 
	9	-5	-15	680	230	648	-0.54	-2.29	1.0000 
	-5	-9	-15	633	224	591	0.65	2.15	1.0000 
	-5	-9	-15	718	172	674	0.65	2.15	1.0000 
	-5	-9	15	1084	245	1011	0.81	-1.67	1.0000 
	-6	-9	-15	30	88	38	-0.39	0.4	1.0000 
	9	-6	-15	215	181	182	-0.62	-1.63	1.0000 
	-6	-9	15	270	182	307	-0.42	-0.99	1.0000 
	-6	-9	-15	184	142	204	-0.39	0.4	1.0000 
	9	-7	-15	1479	351	1590	-0.96	-0.17	1.0000 
	-7	-9	15	1604	315	1693	0.79	0.68	1.0000 
	-8	-9	15	832	226	700	1.56	-0.31	1.0000 
	9	-8	-15	794	242	709	-0.89	1.42	1.0000 
	9	-9	-15	368	179	355	0.12	1.11	1.0000 
	8	-10	-15	7	89	-101	-0.53	1.65	1.0000 
	10	8	-15	71	141	88	0.52	-0.82	1.0000 
	10	7	-15	418	191	403	0.37	-1.16	1.0000 
	-10	-7	15	3	111	-24	0.37	1.16	1.0000 
	7	-10	-15	108	99	99	-0.29	0.07	1.0000 
	10	6	-15	4	98	13	1.03	0.51	1.0000 
	-10	-6	15	55	101	83	1.03	-0.51	1.0000 
	6	-10	-15	12	123	46	-0.84	-2.86	1.0000 
	10	5	-15	248	169	280	0.63	0.55	1.0000 
	5	-10	-15	400	156	495	-0.95	-2.74	1.0000 
	10	4	-15	3	120	18	-1.67	-0.2	1.0000 
	4	-10	-15	312	139	359	0.6	-1.51	1.0000 
	3	-10	-15	108	126	126	-0.58	0.32	1.0000 
	10	3	-15	85	153	96	0.41	0.72	1.0000 
	10	2	-15	57	115	38	0.9	0.46	1.0000 
	2	-10	-15	84	129	81	-0.17	1.46	1.0000 
	10	2	15	2	64	-125	0.78	-0.65	1.0000 
	10	1	-15	332	166	308	-0.5	0.65	1.0000 
	1	-10	-15	263	143	261	0.04	-0.15	1.0000 
	10	1	15	235	130	228	-0.26	-1.19	1.0000 
	-1	-10	15	235	150	218	-0.41	-0.65	1.0000 
	-1	-10	-15	348	155	334	-0.36	1.12	1.0000 
	10	-1	-15	324	158	324	0	-0.41	1.0000 
	10	-1	15	536	185	534	0.03	0.16	1.0000 
	-1	-10	-15	62	146	55	-0.36	1.12	1.0000 
	10	-2	-15	243	129	238	-0.18	1.22	1.0000 
	-2	-10	-15	77	128	55	0.88	0.53	1.0000 
	-2	-10	15	157	152	131	0.72	-0.69	1.0000 
	10	-2	15	201	155	195	-0.22	-1.27	1.0000 
	-2	-10	-15	54	94	36	0.88	0.53	1.0000 
	-3	-10	-15	323	132	340	0.32	0.45	1.0000 
	10	-3	-15	211	137	230	-0.43	0.4	1.0000 
	10	-3	15	216	167	231	-0.35	-0.17	1.0000 
	10	-3	-15	10	94	14	-0.43	0.4	1.0000 
	-3	-10	15	110	143	122	0.38	-0.48	1.0000 
	-3	-10	-15	1	131	-32	0.32	0.45	1.0000 
	-4	-10	-15	245	138	327	-1.55	-0.78	1.0000 
	-4	-10	15	132	147	182	-1.28	0.84	1.0000 
	-4	-10	-15	92	142	144	-1.55	-0.78	1.0000 
	10	-4	-15	159	139	190	0.59	-1.42	1.0000 
	10	-4	-15	101	107	125	0.59	-1.42	1.0000 
	-5	-10	15	373	185	434	1.02	-0.14	1.0000 
	10	-5	-15	248	152	324	-1	-2.76	1.0000 
	-5	-10	-15	150	104	187	0.95	-0.3	1.0000 
	-6	-10	-15	3	71	-87	1.05	-0.12	1.0000 
	10	-6	-15	21	106	-109	-0.89	-2.94	1.0000 
	-6	-10	15	110	161	153	1.26	-0.14	1.0000 
	10	-7	-15	380	189	372	-0.13	0.11	1.0000 
	-7	-10	15	369	168	354	0.38	1.23	1.0000 
	10	-8	-15	157	107	177	-0.27	1.79	1.0000 
	7	-11	-15	130	136	179	1.58	-1.54	1.0000 
	6	-11	-15	6	91	8	-1.94	-2.98	1.0000 
	11	6	-15	20	94	-112	1.66	-2.47	1.0000 
	5	-11	-15	201	149	387	-3.66	0.43	1.0000 
	11	5	-15	146	185	337	2.97	-4.06	1.0000 
	4	-11	-15	454	164	422	-0.54	0.21	1.0000 
	11	4	-15	893	274	890	0.21	1.24	1.0000 
	3	-11	-15	874	244	931	-0.43	-1.56	1.0000 
	11	3	-15	1172	316	1168	0.08	1.92	1.0000 
	11	2	-15	783	254	810	-0.33	0.06	1.0000 
	2	-11	-15	474	195	516	0.76	1.18	1.0000 
	1	-11	-15	223	113	118	2.76	0.11	1.0000 
	11	1	-15	142	125	73	-2.13	1.24	1.0000 
	11	1	15	6	82	-2	-1.45	-0.86	1.0000 
	-1	-11	-15	282	107	196	-1.78	1.42	1.0000 
	-1	-11	15	267	135	179	-1.93	-0.51	1.0000 
	11	-1	15	725	171	518	2.8	-0.2	1.0000 
	11	-1	-15	179	107	87	2.7	0.21	1.0000 
	11	-2	15	331	173	369	0.81	-1.08	1.0000 
	11	-2	-15	609	224	671	0.9	0.61	1.0000 
	-2	-11	-15	498	175	525	-0.44	0.34	1.0000 
	-2	-11	15	721	202	752	-0.39	-0.07	1.0000 
	-3	-11	15	694	204	701	0.21	-1.45	1.0000 
	-3	-11	-15	867	207	833	-0.26	1.9	1.0000 
	11	-3	-15	1167	275	1213	-0.24	-1.51	1.0000 
	11	-3	15	1362	341	1436	-0.43	1.62	1.0000 
	-4	-11	15	603	198	572	0.52	-0.81	1.0000 
	11	-4	15	497	221	460	-0.57	-0.07	1.0000 
	11	-4	-15	666	192	622	-0.59	0.09	1.0000 
	-4	-11	-15	617	158	611	0.16	0.7	1.0000 
	11	-4	-15	534	183	495	-0.59	0.09	1.0000 
	11	-5	15	213	241	399	-3.57	-0.71	1.0000 
	-5	-11	-15	33	100	135	3.05	-4.23	1.0000 
	-5	-11	15	104	145	253	3.23	2.84	1.0000 
	11	-5	-15	54	118	164	-3.64	-0.24	1.0000 
	11	-6	-15	90	150	215	-1.66	-3.06	1.0000 
	-6	-11	15	88	169	204	1.98	2.72	1.0000 
	-6	-11	-15	172	112	306	1.73	-2.48	1.0000 
	-7	-11	-15	75	86	120	-1.53	0.3	1.0000 
	6	-12	-15	851	219	882	0.41	-0.7	1.0000 
	12	4	-15	631	242	714	1.01	0.47	1.0000 
	12	3	-15	3205	493	3069	0.85	-0.29	1.0000 
	12	2	-15	2182	388	2115	-0.46	-0.23	1.0000 
	1	-12	-15	1145	236	1100	-0.45	0.02	1.0000 
	12	1	-15	514	217	502	0.2	0.19	1.0000 
	12	1	15	814	214	797	0.13	0.68	1.0000 
	12	-1	15	828	233	796	-0.33	0.4	1.0000 
	12	-1	-15	1242	290	1196	-0.47	0.25	1.0000 
	-1	-12	-15	750	199	731	0.2	-0.31	1.0000 
	-1	-12	15	818	216	800	0.19	0.14	1.0000 
	12	-2	-15	1727	354	1672	0.36	-0.83	1.0000 
	12	-2	15	2172	398	2108	0.36	0.96	1.0000 
	-2	-12	15	2082	329	2015	-0.45	0.47	1.0000 
	-2	-12	-15	2747	385	2674	-0.44	-0.34	1.0000 
	12	-3	15	2777	460	2784	-0.02	0.52	1.0000 
	-3	-12	-15	2116	327	2024	0.68	0	1.0000 
	12	-3	-15	2259	398	2260	-0.09	-0.74	1.0000 
	-3	-12	15	2092	320	1955	1.03	0.12	1.0000 
	12	-4	15	312	197	345	-0.58	-0.23	1.0000 
	12	-4	-15	554	227	611	-0.79	0.06	1.0000 
	-4	-12	15	286	185	357	1.25	-0.57	1.0000 
	-4	-12	-15	376	160	438	0.95	0.55	1.0000 
	-5	-12	-15	131	96	116	-0.54	-0.44	1.0000 
	-5	-12	15	19	121	16	-0.27	0.34	1.0000 
	-6	-12	-15	791	163	858	-0.83	-0.44	1.0000 
	13	1	15	907	243	1055	1.5	-0.68	1.0000 
	13	-1	15	538	231	720	-2.59	1.73	1.0000 
	13	-1	-15	644	252	847	-2.63	-1.66	1.0000 
	-2	-13	15	1563	259	1463	0.86	-0.04	1.0000 
	13	-2	-15	1480	316	1447	-0.61	-1.72	1.0000 
	13	-3	-15	1822	359	1775	0.34	0.29	1.0000 
	-3	-13	15	1898	335	2008	0.69	0.97	1.0000 
	0	0	-16	16287	814	16860	-1.54	1.14	1.0000 
	0	-1	-16	5343	410	5475	0.41	2.34	1.0000 
	0	1	-16	5649	389	5773	0.35	2.45	1.0000 
	-1	0	-16	5461	402	5583	0.35	2.42	1.0000 
	1	0	-16	5532	395	5683	0.47	2.47	1.0000 
	-1	-1	-16	858	192	850	-0.11	2.31	1.0000 
	-1	1	-16	788	170	781	-0.12	2.44	1.0000 
	1	-1	-16	814	179	813	-0.2	2.63	1.0000 
	1	1	-16	902	170	900	-0.14	1.69	1.0000 
	-2	-1	-16	723	189	821	-1.16	0.3	1.0000 
	-1	2	-16	843	171	944	-0.97	1.23	1.0000 
	1	-2	-16	751	194	869	-1.15	1.61	1.0000 
	2	1	-16	828	169	920	-1.05	-0.18	1.0000 
	0	2	-16	162	92	118	1.12	0.98	1.0000 
	-2	0	-16	62	107	39	0.94	0.95	1.0000 
	2	0	-16	5	64	-64	1.08	0.99	1.0000 
	0	-2	-16	4	94	-36	0.94	0.99	1.0000 
	-2	1	-16	922	192	1032	-1.03	1.11	1.0000 
	2	-1	-16	567	171	672	-1.17	1.68	1.0000 
	1	2	-16	714	156	804	-1.11	-0.33	1.0000 
	-1	-2	-16	640	189	727	-1.1	0.26	1.0000 
	-2	-2	-16	3006	317	2839	-1.04	-0.18	1.0000 
	-2	2	-16	2410	241	2287	-0.86	1.2	1.0000 
	2	-2	-16	2102	270	1970	-1.03	2	1.0000 
	2	2	-16	2558	236	2429	-0.91	-1.12	1.0000 
	2	-3	-16	568	189	563	0.1	1.27	1.0000 
	3	2	-16	533	137	497	0.55	1.17	1.0000 
	-2	3	-16	939	166	940	0.06	1.63	1.0000 
	-3	-2	-16	535	175	508	0.47	1.77	1.0000 
	1	-3	-16	331	158	284	-0.99	0.46	1.0000 
	3	1	-16	281	112	238	-0.84	-1.1	1.0000 
	-3	-1	-16	553	172	487	-0.92	-1.04	1.0000 
	-1	3	-16	317	108	278	-0.73	-0.24	1.0000 
	0	-3	-16	56	122	97	-0.44	-1.57	1.0000 
	-3	0	-16	1	94	6	-0.22	-2.09	1.0000 
	3	0	-16	98	108	164	0.06	-2.05	1.0000 
	0	3	-16	121	91	205	0.29	-2.33	1.0000 
	3	0	-16	37	92	81	0.06	-2.05	1.0000 
	1	3	-16	283	100	244	-0.77	-1.2	1.0000 
	3	-1	-16	588	144	526	-0.95	0.37	1.0000 
	-1	-3	-16	265	155	219	-0.93	-0.89	1.0000 
	3	-1	-16	247	131	207	-0.95	0.37	1.0000 
	-3	1	-16	322	137	283	-0.73	-0.22	1.0000 
	3	-2	-16	493	132	506	-0.12	1.91	1.0000 
	3	-2	-16	659	191	676	-0.12	1.91	1.0000 
	-2	-3	-16	712	205	675	0.54	1.6	1.0000 
	2	3	-16	734	140	701	0.46	1.41	1.0000 
	-3	2	-16	543	154	529	0.22	1.13	1.0000 
	3	-3	-16	38	88	57	-0.9	0.96	1.0000 
	3	3	-16	126	78	181	-1.43	0.97	1.0000 
	-3	-3	-16	333	175	435	-1.61	1.3	1.0000 
	3	-3	-16	216	143	260	-0.9	0.96	1.0000 
	4	3	-16	3	121	16	-3.61	-0.61	1.0000 
	3	-4	-16	127	153	247	-2.99	0.27	1.0000 
	-4	-3	-16	70	160	189	-3.68	-0.25	1.0000 
	4	3	-16	42	81	138	-3.61	-0.61	1.0000 
	-4	-2	-16	3027	329	2749	-1.78	1.2	1.0000 
	4	2	-16	2890	322	2619	-1.76	0.94	1.0000 
	4	2	-16	3279	268	2990	-1.76	0.94	1.0000 
	2	-4	-16	3362	346	3009	-2.11	0.46	1.0000 
	4	1	-16	4286	375	4309	-0.09	-0.41	1.0000 
	1	-4	-16	4025	384	4054	-0.11	-0.62	1.0000 
	1	-4	16	4747	292	4732	0.13	0.77	1.0000 
	-1	4	-16	4830	311	4814	0.13	-0.77	1.0000 
	4	1	-16	4679	358	4703	-0.09	-0.41	1.0000 
	-4	-1	-16	4269	383	4290	-0.09	-0.26	1.0000 
	0	4	-16	7078	419	7377	1.22	-0.85	1.0000 
	0	-4	-16	8055	561	8330	1.03	-0.19	1.0000 
	0	-4	16	7164	419	7465	1.22	0.85	1.0000 
	4	0	-16	7051	488	7346	1.19	-0.53	1.0000 
	-4	0	-16	7538	518	7813	1.08	-0.68	1.0000 
	4	0	-16	7639	501	7946	1.19	-0.53	1.0000 
	-1	-4	-16	4984	434	5001	-0.07	-0.16	1.0000 
	4	-1	-16	5549	391	5575	-0.07	-0.61	1.0000 
	-4	1	-16	5003	398	4990	0.12	-0.85	1.0000 
	4	-1	-16	5296	413	5321	-0.07	-0.61	1.0000 
	1	4	-16	5401	323	5413	-0.03	-0.31	1.0000 
	-1	-4	16	4434	331	4445	-0.03	0.31	1.0000 
	-2	-4	16	3430	287	3148	-1.72	-1.5	1.0000 
	-2	-4	-16	3537	363	3221	-1.86	0.9	1.0000 
	4	-2	-16	3664	338	3283	-2.21	1.08	1.0000 
	4	-2	-16	3345	270	2981	-2.21	1.08	1.0000 
	4	-3	-16	47	81	135	-2.97	1.13	1.0000 
	-3	-4	16	89	138	215	-3.58	0.23	1.0000 
	4	-3	-16	83	132	193	-2.97	1.13	1.0000 
	-3	-4	-16	65	156	184	-3.76	-0.48	1.0000 
	-4	-4	16	655	212	760	-0.99	2.15	1.0000 
	-4	-4	-16	468	225	544	-0.92	-1.55	1.0000 
	4	-4	-16	821	235	934	-1.13	-1.12	1.0000 
	5	4	-16	1639	316	1932	2.34	-0.16	1.0000 
	-5	-4	-16	1542	310	1822	2.24	0.43	1.0000 
	4	-5	-16	1873	331	2132	1.97	-0.28	1.0000 
	-5	-4	16	1585	292	1873	2.34	0.16	1.0000 
	5	3	-16	99	72	114	-0.37	-0.31	1.0000 
	-5	-3	-16	113	139	126	-0.29	-0.29	1.0000 
	5	3	-16	1	117	-38	-0.37	-0.31	1.0000 
	3	-5	-16	1	99	-65	-0.69	0.1	1.0000 
	-5	-2	-16	1630	294	1979	-2.65	-1.51	1.0000 
	5	2	-16	1826	250	2202	-2.7	-1.61	1.0000 
	5	2	-16	2302	336	2723	-2.7	-1.61	1.0000 
	2	-5	-16	1799	309	2163	-2.72	-0.17	1.0000 
	-5	-1	-16	3644	365	3745	0.57	-0.19	1.0000 
	5	1	-16	3909	376	3985	0.45	-0.5	1.0000 
	1	-5	16	3486	273	3612	0.76	0.74	1.0000 
	5	1	-16	3818	331	3894	0.45	-0.5	1.0000 
	1	-5	-16	3920	388	4019	0.6	-1.05	1.0000 
	0	-5	16	10622	505	9861	2.45	-1.17	1.0000 
	0	-5	-16	10957	644	10128	2.65	0.86	1.0000 
	5	0	-16	10017	579	9308	2.35	1.06	1.0000 
	-5	0	-16	10439	604	9678	2.49	0.9	1.0000 
	5	0	-16	9810	577	9109	2.35	1.06	1.0000 
	5	-1	-16	3689	335	3776	0.55	-0.96	1.0000 
	5	-1	-16	4137	373	4229	0.55	-0.96	1.0000 
	-1	-5	-16	4018	410	4127	0.61	-0.43	1.0000 
	-1	-5	16	3268	301	3354	0.51	0.08	1.0000 
	5	-2	-16	1974	254	2363	-2.78	-0.26	1.0000 
	5	-2	-16	1968	308	2357	-2.78	-0.26	1.0000 
	-2	-5	-16	1415	302	1757	-2.78	-1.55	1.0000 
	-2	-5	16	2113	288	2494	-2.56	1.44	1.0000 
	5	-3	-16	2	67	-52	-0.85	0.58	1.0000 
	-3	-5	-16	81	149	97	-0.45	-0.35	1.0000 
	-3	-5	16	0	133	0	-0.34	0.32	1.0000 
	5	-3	-16	2	95	-31	-0.85	0.58	1.0000 
	5	-4	-16	1698	315	1951	1.97	0.17	1.0000 
	-4	-5	-16	1444	306	1715	2.27	0.2	1.0000 
	-4	-5	16	1352	278	1608	2.22	-0.11	1.0000 
	-4	-5	-16	1749	242	2046	2.27	0.2	1.0000 
	-5	-5	16	488	202	513	-0.44	-0.28	1.0000 
	-5	-5	-16	585	218	620	-0.62	0.64	1.0000 
	-5	-5	-16	567	137	602	-0.62	0.64	1.0000 
	5	-5	-16	764	230	757	0	0.4	1.0000 
	-6	-5	16	673	214	608	-0.95	-0.41	1.0000 
	-6	-5	-16	382	194	309	-1.29	-0.23	1.0000 
	5	-6	-16	878	248	760	-1.25	-0.93	1.0000 
	6	5	-16	588	209	528	-0.95	0.41	1.0000 
	-6	-4	-16	1106	244	918	2.01	-0.18	1.0000 
	4	-6	-16	869	226	668	2.36	0.83	1.0000 
	-6	-4	16	1326	249	1078	2.39	-0.15	1.0000 
	6	4	-16	1498	285	1234	2.39	0.15	1.0000 
	6	3	-16	7	122	-72	1.68	-0.66	1.0000 
	3	-6	-16	59	121	28	1.75	0.14	1.0000 
	-6	-3	-16	42	136	14	1.73	-0.76	1.0000 
	6	3	-16	118	67	68	1.68	-0.66	1.0000 
	6	2	16	811	167	799	-0.12	1.24	1.0000 
	6	2	-16	919	179	898	-0.21	-1.6	1.0000 
	-6	-2	-16	928	242	915	-0.12	-1.24	1.0000 
	2	-6	-16	738	222	745	0.1	-0.43	1.0000 
	6	2	-16	631	203	613	-0.21	-1.6	1.0000 
	6	1	-16	534	188	539	0.02	-0.53	1.0000 
	1	-6	-16	850	225	820	0.32	0.19	1.0000 
	6	1	-16	897	194	903	0.02	-0.53	1.0000 
	1	-6	16	605	151	584	0.3	0.05	1.0000 
	6	0	-16	4571	390	4375	-1.03	0.59	1.0000 
	0	-6	-16	4293	405	4122	-0.93	0.61	1.0000 
	0	-6	16	3982	310	3804	-0.98	-0.36	1.0000 
	6	0	-16	3732	345	3555	-1.03	0.59	1.0000 
	6	-1	-16	961	219	931	0.3	0.24	1.0000 
	6	-1	-16	813	197	785	0.3	0.24	1.0000 
	-1	-6	-16	691	221	684	0.11	-0.09	1.0000 
	-1	-6	16	882	202	892	-0.07	0.29	1.0000 
	-2	-6	16	683	191	665	-0.19	1.48	1.0000 
	6	-2	-16	498	159	499	0.04	-0.43	1.0000 
	6	-2	-16	673	208	675	0.04	-0.43	1.0000 
	-2	-6	-16	637	226	625	-0.13	-1.22	1.0000 
	6	-3	-16	6	108	-36	1.61	0.07	1.0000 
	6	-3	-16	11	82	1	1.61	0.07	1.0000 
	-3	-6	-16	89	148	47	1.64	-0.76	1.0000 
	-3	-6	16	7	115	-94	1.65	0.75	1.0000 
	-4	-6	-16	1773	295	1512	2.16	0.03	1.0000 
	-4	-6	-16	958	174	769	2.16	0.03	1.0000 
	-4	-6	16	1206	232	1004	2.03	-0.1	1.0000 
	6	-4	-16	1614	280	1344	2.31	0.53	1.0000 
	6	-5	-16	915	241	793	-1.23	-1.15	1.0000 
	-5	-6	-16	453	201	383	-1.18	0.11	1.0000 
	-5	-6	16	593	201	514	-1.18	-0.19	1.0000 
	-5	-6	-16	621	139	539	-1.18	0.11	1.0000 
	-6	-6	16	1189	287	1337	-1.5	-1.26	1.0000 
	6	-6	-16	684	259	818	-1.54	-0.82	1.0000 
	-6	-6	-16	801	259	935	-1.56	0.28	1.0000 
	7	6	-16	60	133	53	-0.26	-0.24	1.0000 
	6	-7	-16	185	140	192	0.08	0.38	1.0000 
	-7	-6	16	0	146	-29	-0.26	0.24	1.0000 
	-7	-6	-16	101	152	81	-0.67	-0.18	1.0000 
	7	5	-16	1	131	-90	0.73	0.28	1.0000 
	-7	-5	16	1	134	-141	0.73	-0.28	1.0000 
	5	-7	-16	219	153	227	0.23	0.03	1.0000 
	7	4	-16	14	141	19	0.32	1.33	1.0000 
	4	-7	-16	157	169	183	0.5	0.78	1.0000 
	7	3	-16	442	202	454	0.19	0.57	1.0000 
	3	-7	-16	418	192	447	0.45	-0.24	1.0000 
	7	2	-16	485	184	366	1.96	-0.76	1.0000 
	2	-7	-16	267	161	195	1.62	-1.13	1.0000 
	7	2	-16	770	167	618	1.96	-0.76	1.0000 
	7	2	16	687	158	553	1.83	0.73	1.0000 
	1	-7	16	393	143	402	0.15	-0.07	1.0000 
	7	1	-16	496	188	523	0.42	-0.25	1.0000 
	7	1	-16	609	168	639	0.42	-0.25	1.0000 
	7	1	16	707	188	724	0.22	0.13	1.0000 
	1	-7	-16	351	186	367	0.23	0.66	1.0000 
	0	-7	-16	2448	374	2853	-2.65	0.94	1.0000 
	0	-7	16	3147	308	3620	-2.73	-0.81	1.0000 
	7	0	-16	3155	361	3615	-2.66	0.92	1.0000 
	7	0	-16	3074	370	3528	-2.66	0.92	1.0000 
	-1	-7	-16	790	245	824	0.4	-0.01	1.0000 
	7	-1	-16	545	181	567	0.28	0.43	1.0000 
	-1	-7	16	580	178	598	0.26	0.31	1.0000 
	7	-1	-16	668	199	692	0.28	0.43	1.0000 
	-2	-7	16	730	186	595	1.8	0.99	1.0000 
	7	-2	-16	802	200	681	1.56	-1.38	1.0000 
	7	-2	-16	1070	211	930	1.56	-1.38	1.0000 
	-2	-7	-16	636	214	500	1.93	-0.46	1.0000 
	-3	-7	-16	499	159	515	0.24	0.9	1.0000 
	7	-3	-16	348	143	371	0.38	-0.6	1.0000 
	-3	-7	16	364	170	375	0.19	-0.1	1.0000 
	7	-3	-16	300	169	321	0.38	-0.6	1.0000 
	-3	-7	-16	231	187	242	0.24	0.9	1.0000 
	-4	-7	16	65	135	70	0.14	-0.46	1.0000 
	-4	-7	-16	86	96	102	0.25	1.27	1.0000 
	-4	-7	-16	156	179	178	0.25	1.27	1.0000 
	7	-4	-16	92	150	104	0.37	0.12	1.0000 
	-5	-7	16	138	173	151	0.38	0.03	1.0000 
	-5	-7	-16	1	64	-37	0.47	-0.4	1.0000 
	7	-5	-16	0	124	-31	0.23	-0.29	1.0000 
	-5	-7	-16	1	143	-96	0.47	-0.4	1.0000 
	7	-6	-16	77	162	82	0.11	0.34	1.0000 
	-6	-7	-16	86	145	73	-0.41	-0.82	1.0000 
	-6	-7	16	99	164	92	-0.29	-0.23	1.0000 
	7	-7	-16	82	160	137	-0.73	-2.01	1.0000 
	-7	-7	-16	164	175	235	-1.02	-1.58	1.0000 
	-7	-7	16	14	155	-27	-0.78	2.33	1.0000 
	8	7	-16	186	137	233	0.2	-3.64	1.0000 
	7	-8	-16	22	120	16	0.1	-3.12	1.0000 
	-8	-7	16	380	221	458	0.2	3.64	1.0000 
	6	-8	-16	303	181	401	1.75	-1.77	1.0000 
	8	6	-16	560	266	705	1.83	-2.38	1.0000 
	-8	-6	16	596	237	745	1.83	2.38	1.0000 
	-8	-5	16	722	183	551	2.35	0.87	1.0000 
	8	5	-16	700	227	532	2.35	-0.87	1.0000 
	5	-8	-16	516	187	345	2.77	-0.06	1.0000 
	8	4	-16	64	157	46	-1.41	1.58	1.0000 
	4	-8	-16	103	140	75	-1.1	0.35	1.0000 
	3	-8	-16	82	146	192	-3.11	1.05	1.0000 
	8	3	-16	21	123	-11	-2.54	1.76	1.0000 
	8	2	-16	547	220	625	-1.08	0.13	1.0000 
	8	2	-16	578	172	659	-1.08	0.13	1.0000 
	2	-8	-16	640	226	715	-0.96	0.69	1.0000 
	8	2	16	570	176	655	-1.13	0.37	1.0000 
	8	1	-16	2076	294	2093	0.1	0.53	1.0000 
	1	-8	-16	1803	322	1788	-0.14	0.46	1.0000 
	8	1	16	1905	285	1906	-0.02	-0.6	1.0000 
	8	1	-16	2143	343	2160	0.1	0.53	1.0000 
	8	0	-16	463	165	463	-0.03	1.09	1.0000 
	0	-8	16	671	185	678	-0.11	-1.31	1.0000 
	8	0	16	458	190	450	0.09	-1.05	1.0000 
	0	-8	-16	445	192	433	0.15	0.83	1.0000 
	8	0	-16	802	220	803	-0.03	1.09	1.0000 
	-1	-8	-16	1824	324	1849	0.18	0.4	1.0000 
	8	-1	-16	2398	334	2378	-0.15	0.33	1.0000 
	-1	-8	16	2029	268	2028	-0.04	-0.69	1.0000 
	8	-1	-16	1698	295	1681	-0.15	0.33	1.0000 
	8	-2	-16	381	163	440	-0.98	0.03	1.0000 
	-2	-8	-16	529	233	602	-1.02	0.23	1.0000 
	8	-2	-16	610	203	685	-0.98	0.03	1.0000 
	-2	-8	16	589	203	688	-1.29	0.48	1.0000 
	8	-3	-16	40	125	127	-3.29	0.46	1.0000 
	-3	-8	-16	114	137	231	-2.45	2.38	1.0000 
	8	-3	-16	63	148	165	-3.29	0.46	1.0000 
	-3	-8	16	347	187	519	-2.7	-0.91	1.0000 
	-3	-8	-16	228	184	388	-2.45	2.38	1.0000 
	-4	-8	-16	270	189	240	-1.37	1.51	1.0000 
	8	-4	-16	3	110	-9	-1.19	0.02	1.0000 
	-4	-8	16	5	146	-19	-1.27	-0.82	1.0000 
	-4	-8	-16	194	110	168	-1.37	1.51	1.0000 
	8	-5	-16	771	197	561	2.72	0.03	1.0000 
	-5	-8	-16	921	201	750	2.16	-1.5	1.0000 
	-5	-8	-16	626	208	486	2.16	-1.5	1.0000 
	-5	-8	16	685	198	533	2.1	0.5	1.0000 
	-6	-8	-16	602	236	734	1.66	-1.95	1.0000 
	8	-6	-16	534	243	655	1.66	-1.44	1.0000 
	-6	-8	-16	419	126	529	1.66	-1.95	1.0000 
	-6	-8	16	594	237	720	1.65	1.2	1.0000 
	8	-7	-16	219	182	270	-0.1	-3.14	1.0000 
	-7	-8	-16	593	245	621	0.44	-2.43	1.0000 
	-7	-8	16	651	215	702	0.55	2.98	1.0000 
	8	-8	-16	148	148	206	1.47	0.14	1.0000 
	-8	-8	16	328	199	480	1.66	2.82	1.0000 
	9	8	-16	94	123	93	0	-0.13	1.0000 
	-9	-8	16	0	108	-21	0	0.13	1.0000 
	8	-9	-16	45	122	81	1.05	2.31	1.0000 
	7	-9	-16	304	166	355	0.97	-0.26	1.0000 
	9	7	-16	215	156	229	0.35	-0.92	1.0000 
	-9	-7	16	126	129	136	0.35	0.92	1.0000 
	6	-9	-16	1553	317	1429	1.72	-3.56	1.0000 
	9	6	-16	1264	311	1116	1.81	-2.49	1.0000 
	-9	-6	16	1143	243	1001	1.81	2.49	1.0000 
	9	5	-16	2804	464	3077	1.77	-1.81	1.0000 
	5	-9	-16	2807	428	3129	2.06	-1.92	1.0000 
	9	4	-16	1715	368	1841	-0.95	-0.66	1.0000 
	4	-9	-16	1981	340	2123	-1.11	1.4	1.0000 
	9	3	-16	1047	262	860	-2.07	0.75	1.0000 
	3	-9	-16	1074	248	879	-2.48	3.36	1.0000 
	9	2	-16	23	103	132	-2.36	3.79	1.0000 
	2	-9	-16	5	135	72	-1.8	3.85	1.0000 
	9	2	-16	30	128	148	-2.36	3.79	1.0000 
	9	1	-16	1358	281	1506	-1.39	1.04	1.0000 
	9	1	16	1496	274	1634	-1.26	-1.44	1.0000 
	1	-9	-16	1028	274	1167	-1.4	-0.13	1.0000 
	9	1	-16	938	274	1061	-1.39	1.04	1.0000 
	9	0	-16	573	179	511	-0.7	-3.38	1.0000 
	0	-9	-16	880	252	825	-0.51	-3.34	1.0000 
	9	0	-16	653	197	588	-0.7	-3.38	1.0000 
	0	-9	16	888	196	809	-0.79	3.42	1.0000 
	9	0	16	741	215	690	-0.5	3.46	1.0000 
	9	-1	-16	1063	261	1213	-1.52	0.33	1.0000 
	-1	-9	16	1251	255	1399	-1.46	-1.17	1.0000 
	9	-1	16	879	262	1008	-1.36	0.41	1.0000 
	-1	-9	-16	1204	288	1333	-1.31	1.29	1.0000 
	9	-1	-16	936	258	1077	-1.52	0.33	1.0000 
	9	-2	-16	19	108	119	-1.79	4.01	1.0000 
	-2	-9	-16	1	117	60	-2.3	3.72	1.0000 
	-2	-9	16	34	135	149	-2.35	-3.57	1.0000 
	9	-2	-16	89	135	257	-1.79	4.01	1.0000 
	-2	-9	-16	129	188	321	-2.3	3.72	1.0000 
	-3	-9	-16	850	188	682	-2.1	1.08	1.0000 
	9	-3	-16	971	223	773	-2.57	3.09	1.0000 
	-3	-9	-16	1150	254	953	-2.1	1.08	1.0000 
	9	-3	-16	1120	251	909	-2.57	3.09	1.0000 
	-3	-9	16	1135	228	910	-2.36	-0.33	1.0000 
	9	-4	-16	1681	335	1792	-0.96	1.42	1.0000 
	-4	-9	-16	1524	263	1635	-0.9	-0.45	1.0000 
	-4	-9	16	1712	313	1856	-1.02	1.36	1.0000 
	-4	-9	-16	2145	360	2276	-0.9	-0.45	1.0000 
	-5	-9	-16	2344	338	2547	1.47	-2.32	1.0000 
	9	-5	-16	2967	434	3279	1.95	-1.73	1.0000 
	-5	-9	16	2625	383	2856	1.56	1.85	1.0000 
	-5	-9	-16	2349	387	2552	1.47	-2.32	1.0000 
	-6	-9	-16	1475	238	1350	1.47	-2.38	1.0000 
	-6	-9	-16	1671	315	1539	1.47	-2.38	1.0000 
	-6	-9	16	1603	284	1441	1.59	1.51	1.0000 
	9	-6	-16	1439	325	1332	1.55	-3.39	1.0000 
	-7	-9	16	328	186	368	0.71	-0.13	1.0000 
	-7	-9	-16	312	163	338	0.5	-0.71	1.0000 
	9	-7	-16	430	223	487	0.91	-0.14	1.0000 
	-8	-9	16	222	167	222	0.18	-0.36	1.0000 
	9	-8	-16	11	108	0	0.57	2.11	1.0000 
	8	-10	-16	324	176	386	-1.1	0.13	1.0000 
	10	7	-16	73	131	61	0.48	0.11	1.0000 
	7	-10	-16	170	131	132	0.98	0.39	1.0000 
	-10	-7	16	1	116	-138	0.48	-0.11	1.0000 
	10	6	-16	865	313	935	0.93	-2.93	1.0000 
	6	-10	-16	1462	326	1578	1.11	-1.77	1.0000 
	10	5	-16	1572	378	1705	-1.01	-0.86	1.0000 
	5	-10	-16	3073	424	3211	-0.81	-0.09	1.0000 
	10	4	-16	1688	350	1507	-1.5	-0.17	1.0000 
	4	-10	-16	1971	321	1843	-1.24	1.92	1.0000 
	3	-10	-16	736	226	748	-0.16	1.54	1.0000 
	10	3	-16	389	199	398	-0.2	1.39	1.0000 
	2	-10	-16	72	136	92	-0.19	2.23	1.0000 
	10	2	-16	39	129	149	0.51	5.59	1.0000 
	10	1	-16	959	268	938	-0.24	0.06	1.0000 
	10	1	16	832	211	812	-0.38	-0.76	1.0000 
	1	-10	-16	873	235	822	-0.48	-0.87	1.0000 
	10	0	-16	293	185	474	-0.65	-5.25	1.0000 
	0	-10	16	526	217	778	-0.74	5.19	1.0000 
	0	-10	-16	406	213	621	-0.78	-5.07	1.0000 
	10	0	16	172	135	307	-0.79	5.11	1.0000 
	-1	-10	-16	910	213	888	-0.35	0.56	1.0000 
	10	-1	-16	1177	278	1127	-0.48	-0.1	1.0000 
	-1	-10	16	969	235	939	-0.4	-0.4	1.0000 
	10	-1	16	968	256	918	-0.42	0.94	1.0000 
	-1	-10	-16	1100	263	1076	-0.35	0.56	1.0000 
	10	-1	-16	905	232	861	-0.48	-0.1	1.0000 
	10	-2	-16	115	125	169	-0.27	2.9	1.0000 
	-2	-10	-16	30	110	13	0.54	5.55	1.0000 
	-2	-10	-16	88	160	250	0.54	5.55	1.0000 
	10	-2	16	47	135	69	-0.13	-2.64	1.0000 
	10	-2	-16	19	107	-88	-0.27	2.9	1.0000 
	-2	-10	16	77	100	-171	0.57	-5.82	1.0000 
	-3	-10	-16	549	203	568	-0.29	1.2	1.0000 
	10	-3	-16	422	162	428	-0.12	1.55	1.0000 
	-3	-10	16	685	220	703	-0.26	-1.04	1.0000 
	-3	-10	-16	485	157	503	-0.29	1.2	1.0000 
	10	-3	-16	703	211	712	-0.12	1.55	1.0000 
	-4	-10	-16	1792	327	1609	-1.47	-0.17	1.0000 
	10	-4	-16	1732	324	1642	-0.99	1.9	1.0000 
	-4	-10	-16	1864	281	1677	-1.47	-0.17	1.0000 
	-4	-10	16	1710	292	1514	-1.55	1.22	1.0000 
	10	-5	-16	2043	381	2155	-0.78	-0.41	1.0000 
	-5	-10	16	2549	397	2739	-1.07	1.41	1.0000 
	-5	-10	-16	2716	403	2908	-1.07	-1.24	1.0000 
	-5	-10	-16	2410	340	2591	-1.07	-1.24	1.0000 
	-6	-10	-16	717	185	764	0.75	-3.34	1.0000 
	-6	-10	16	1146	288	1217	0.82	2.3	1.0000 
	10	-6	-16	1014	296	1097	0.99	-2.29	1.0000 
	-7	-10	16	2	110	-91	0.49	-0.76	1.0000 
	10	-7	-16	27	120	14	0.88	0.5	1.0000 
	6	-11	-16	894	269	1073	-1.98	2.61	1.0000 
	11	5	-16	2468	428	2270	-1.52	1.24	1.0000 
	5	-11	-16	1578	307	1482	-1.15	2.37	1.0000 
	4	-11	-16	1351	274	1250	1.01	-0.64	1.0000 
	11	4	-16	1200	311	1111	0.84	0.47	1.0000 
	11	3	-16	329	170	353	0.41	0.36	1.0000 
	3	-11	-16	444	165	495	0.65	-2.39	1.0000 
	11	2	-16	214	147	221	0.19	-0.46	1.0000 
	2	-11	-16	148	126	176	0.41	-3.11	1.0000 
	1	-11	-16	975	242	906	0.85	-0.89	1.0000 
	11	1	-16	1246	300	1121	1.26	-0.43	1.0000 
	11	1	16	1058	229	973	0.9	0.14	1.0000 
	11	0	-16	1221	305	1349	0.94	1.53	1.0000 
	11	0	16	1330	304	1447	0.79	-1.5	1.0000 
	0	-11	-16	860	250	948	0.7	1.67	1.0000 
	0	-11	-16	990	242	1085	0.7	1.67	1.0000 
	-1	-11	-16	1764	313	1638	1.04	-0.23	1.0000 
	-1	-11	-16	1478	265	1363	1.04	-0.23	1.0000 
	11	-1	-16	1179	275	1103	0.82	-0.63	1.0000 
	11	-1	16	1589	306	1483	1	0.82	1.0000 
	-1	-11	16	1378	265	1262	1.1	0.38	1.0000 
	11	-2	-16	127	119	146	0.27	-3.05	1.0000 
	-2	-11	-16	190	128	202	0.32	-0.5	1.0000 
	11	-2	-16	108	106	124	0.27	-3.05	1.0000 
	-2	-11	16	248	142	247	-0.02	0.04	1.0000 
	11	-2	16	64	107	71	0.32	2.8	1.0000 
	11	-3	-16	285	156	329	0.71	-2.57	1.0000 
	11	-3	16	296	194	328	0.55	2.03	1.0000 
	11	-3	-16	343	163	392	0.71	-2.57	1.0000 
	-3	-11	16	505	186	528	0.28	-0.59	1.0000 
	-3	-11	-16	81	113	92	0.4	-0.09	1.0000 
	-4	-11	-16	808	204	753	0.68	-0.21	1.0000 
	11	-4	-16	1432	293	1319	1.12	-0.89	1.0000 
	11	-4	16	1376	352	1266	1.04	0.27	1.0000 
	-4	-11	16	1172	259	1075	0.92	-0.58	1.0000 
	11	-5	-16	2072	361	1965	-1.09	2.08	1.0000 
	-5	-11	16	2225	358	2049	-1.42	-1.2	1.0000 
	-5	-11	-16	1946	300	1780	-1.4	0.94	1.0000 
	-6	-11	16	914	280	1082	-1.82	-0.39	1.0000 
	-6	-11	-16	520	150	629	-1.59	0.64	1.0000 
	6	-12	-16	45	102	189	-3.35	3.55	1.0000 
	5	-12	-16	475	164	491	-0.12	2.24	1.0000 
	12	3	-16	232	172	329	-0.74	-3.02	1.0000 
	12	2	-16	9	140	146	-1.26	-5.97	1.0000 
	12	1	16	67	81	96	1.14	0.43	1.0000 
	12	1	-16	200	144	253	1.21	-0.27	1.0000 
	1	-12	-16	271	135	302	0.62	-0.07	1.0000 
	12	0	-16	71	142	195	1.36	4.77	1.0000 
	12	0	16	58	100	-12	1.44	-4.86	1.0000 
	0	-12	-16	33	100	6	1.25	5.01	1.0000 
	12	-1	16	69	104	88	0.72	-0.07	1.0000 
	-1	-12	-16	231	145	283	1.13	-0.31	1.0000 
	-1	-12	16	89	111	126	1.25	0.61	1.0000 
	12	-1	-16	38	104	47	0.53	-0.29	1.0000 
	12	-2	-16	72	124	244	-1.28	-4.65	1.0000 
	12	-2	16	53	102	-128	-1.33	4.68	1.0000 
	-2	-12	16	220	162	563	-1.41	5.81	1.0000 
	-2	-12	-16	59	119	283	-1.12	-6.02	1.0000 
	-3	-12	16	197	128	274	-0.87	2.43	1.0000 
	12	-3	-16	156	151	252	-0.75	-3.55	1.0000 
	12	-3	-16	84	123	152	-0.75	-3.55	1.0000 
	-3	-12	-16	138	118	213	-0.63	-3.17	1.0000 
	-4	-12	16	204	152	305	1.97	-1.21	1.0000 
	12	-4	16	216	182	328	2.32	0.84	1.0000 
	-4	-12	-16	281	137	383	1.88	-0.04	1.0000 
	-5	-12	-16	250	123	286	-0.67	2.45	1.0000 
	13	0	16	599	194	613	-0.18	-1.57	1.0000 
	13	-1	16	3	82	-165	-0.97	-0.49	1.0000 
	13	-2	-16	195	152	310	-2.35	-0.86	1.0000 
	-2	-13	16	388	193	573	-0.89	4.01	1.0000 
	13	-3	-16	36	108	67	-1	-1.08	1.0000 
	-1	1	-17	2705	270	2444	-1.79	0.57	1.0000 
	-1	-1	-17	2222	272	2031	1.38	-0.08	1.0000 
	1	-1	-17	2005	251	1766	-1.89	0.37	1.0000 
	1	1	-17	2100	242	1933	1.26	0.14	1.0000 
	-2	-1	-17	10419	603	10315	-0.27	-1.19	1.0000 
	1	-2	-17	9808	597	9925	-0.28	1.34	1.0000 
	-1	2	-17	8655	523	8805	-0.45	1.12	1.0000 
	2	1	-17	9217	533	9078	-0.41	-1.17	1.0000 
	1	2	-17	9399	528	9272	-0.38	-0.87	1.0000 
	-2	1	-17	9124	560	9246	-0.34	1.12	1.0000 
	2	-1	-17	9811	579	9967	-0.41	1.37	1.0000 
	-1	-2	-17	9554	595	9456	-0.25	-1.42	1.0000 
	2	-2	-17	32548	1405	32848	0.49	1.03	1.0000 
	-2	2	-17	31339	1347	31527	0.26	1.44	1.0000 
	-2	-2	-17	32817	1424	33034	-0.4	-0.06	1.0000 
	2	2	-17	32571	1332	32962	-0.71	0.24	1.0000 
	2	-3	-17	26233	1197	26141	0.18	0.15	1.0000 
	-3	-2	-17	26063	1213	26536	0.98	0.02	1.0000 
	-2	3	-17	25765	1108	25724	0.04	0.73	1.0000 
	3	2	-17	25441	1103	25804	0.75	-0.09	1.0000 
	-3	-1	-17	7962	518	7523	1.75	-0.89	1.0000 
	3	1	-17	7943	463	7517	1.67	-0.51	1.0000 
	-1	3	-17	7653	445	7319	-1.27	0.35	1.0000 
	1	-3	-17	7209	505	6908	-1.16	0.51	1.0000 
	1	3	-17	7885	434	7433	1.78	-0.61	1.0000 
	3	-1	-17	8129	468	7789	-1.23	0.64	1.0000 
	3	-1	-17	7406	488	7081	-1.23	0.64	1.0000 
	-1	-3	-17	7814	521	7370	1.77	-0.74	1.0000 
	-3	1	-17	7161	477	6852	-1.22	0.18	1.0000 
	3	-2	-17	25052	1205	24985	0.13	0.18	1.0000 
	3	-2	-17	28983	1168	28911	0.13	0.18	1.0000 
	-2	-3	-17	26866	1250	27348	0.98	0.01	1.0000 
	2	3	-17	27617	1130	27992	0.74	-0.15	1.0000 
	-3	2	-17	25937	1165	25941	-0.05	0.57	1.0000 
	-3	-3	-17	36379	1617	38800	-4.22	0.83	1.0000 
	3	-3	-17	33793	1584	36104	4.03	-1.52	1.0000 
	-3	3	-17	33941	1498	36204	4	-0.57	1.0000 
	3	3	-17	34284	1461	36845	-4.57	0.63	1.0000 
	-4	-3	-17	14918	835	14148	-2.1	-0.71	1.0000 
	3	-4	-17	15780	845	15466	0.85	0.19	1.0000 
	4	3	-17	16396	721	15645	-1.96	-0.3	1.0000 
	-2	4	-17	10810	553	11179	1.16	0.24	1.0000 
	4	2	-17	9286	626	9602	-1.18	-1.52	1.0000 
	2	-4	-17	9391	635	9718	1.07	0.65	1.0000 
	4	2	-17	9763	558	10087	-1.18	-1.52	1.0000 
	-4	-2	-17	9191	631	9573	-1.42	-1.6	1.0000 
	-1	4	-17	4155	283	3783	2.03	-0.67	1.0000 
	-4	-1	-17	3876	367	3680	-1.03	0.59	1.0000 
	4	1	-17	3656	313	3428	-1.25	0.37	1.0000 
	1	-4	-17	3970	380	3623	1.9	-0.25	1.0000 
	4	1	-17	3873	346	3638	-1.25	0.37	1.0000 
	4	-1	-17	3667	306	3317	2.04	-0.77	1.0000 
	-1	-4	17	3526	287	3308	-1.21	-0.54	1.0000 
	-4	1	-17	4283	353	3907	1.98	-0.23	1.0000 
	4	-1	-17	3347	321	3013	2.04	-0.77	1.0000 
	1	4	-17	3795	262	3568	-1.21	0.54	1.0000 
	-1	-4	-17	3594	383	3399	-1.07	0.43	1.0000 
	4	-2	-17	9836	642	10200	1.18	0.49	1.0000 
	-2	-4	17	10539	573	10932	-1.35	1.36	1.0000 
	4	-2	-17	9744	577	10106	1.18	0.49	1.0000 
	-2	-4	-17	9711	656	10037	-1.2	-1.77	1.0000 
	4	-3	-17	16758	894	16408	0.94	0.47	1.0000 
	-3	-4	-17	15584	864	14874	-1.88	-0.75	1.0000 
	-3	-4	17	18329	802	17457	-2.16	0.37	1.0000 
	-4	-4	17	4883	385	4581	1.4	-1.31	1.0000 
	4	-4	-17	3448	398	3207	-1.35	0.82	1.0000 
	-4	-4	-17	4335	420	4018	1.58	1.13	1.0000 
	-5	-4	-17	34	131	-67	3.91	-0.22	1.0000 
	4	-5	-17	26	123	-28	-3.39	0.2	1.0000 
	5	4	-17	33	116	-23	3.81	0.27	1.0000 
	-5	-3	-17	910	237	682	2.79	-1.31	1.0000 
	5	3	-17	516	95	330	3.05	-0.49	1.0000 
	5	3	-17	564	172	369	3.05	-0.49	1.0000 
	3	-5	-17	749	207	529	-2.94	1.2	1.0000 
	5	2	-17	115	141	183	-1.88	-0.48	1.0000 
	5	2	-17	158	111	237	-1.88	-0.48	1.0000 
	2	-5	-17	98	136	182	2.39	0.29	1.0000 
	-5	-2	-17	127	151	210	-2.16	-0.44	1.0000 
	5	1	-17	38	63	-82	-4.12	-0.13	1.0000 
	1	-5	-17	95	164	294	4.96	-0.22	1.0000 
	-5	-1	-17	13	126	92	-3.97	0.8	1.0000 
	5	1	-17	38	100	-71	-4.12	-0.13	1.0000 
	1	-5	17	55	83	-28	4.88	0.92	1.0000 
	-1	-5	-17	29	154	138	-4.26	-0.04	1.0000 
	5	-1	-17	55	88	-34	4.86	-0.83	1.0000 
	5	-1	-17	55	71	-46	4.86	-0.83	1.0000 
	-1	-5	17	47	124	170	-4.08	-0.6	1.0000 
	-2	-5	17	229	141	328	-1.99	0.14	1.0000 
	-2	-5	-17	282	198	389	-1.95	-0.67	1.0000 
	5	-2	-17	9	101	43	2.37	0.19	1.0000 
	5	-2	-17	81	107	158	2.37	0.19	1.0000 
	-3	-5	-17	409	172	245	3.06	-0.48	1.0000 
	5	-3	-17	151	121	62	-2.89	1.48	1.0000 
	-4	-5	-17	121	68	28	3.8	-0.06	1.0000 
	-4	-5	-17	268	169	114	3.8	-0.06	1.0000 
	5	-4	-17	26	121	-5	-3.38	0.25	1.0000 
	-4	-5	17	31	118	-24	3.74	-0.11	1.0000 
	-5	-5	-17	525	233	570	0.65	-0.48	1.0000 
	5	-5	-17	665	224	693	-0.36	-0.32	1.0000 
	-5	-5	17	895	240	951	0.61	-0.49	1.0000 
	-6	-5	17	22	158	39	-1.04	0.54	1.0000 
	5	-6	-17	3	118	-13	1.16	0.21	1.0000 
	-6	-5	-17	2	141	-31	-0.87	-0.51	1.0000 
	6	5	-17	3	100	-123	-1.04	-0.54	1.0000 
	4	-6	-17	922	257	930	0.06	-1.05	1.0000 
	-6	-4	-17	436	222	489	0.73	-0.72	1.0000 
	6	4	-17	1427	309	1486	0.5	-0.12	1.0000 
	6	3	-17	1959	316	1718	1.84	0.39	1.0000 
	3	-6	-17	2012	316	1897	-0.91	-0.22	1.0000 
	-6	-3	-17	1832	303	1598	1.86	0.26	1.0000 
	2	-6	-17	6623	524	6641	-0.08	0.03	1.0000 
	-6	-2	-17	5991	502	6147	0.65	-0.23	1.0000 
	6	2	-17	5907	433	6097	0.77	-0.59	1.0000 
	6	2	-17	5992	513	6184	0.77	-0.59	1.0000 
	6	1	-17	2675	373	3019	-2.08	-1	1.0000 
	1	-6	-17	3728	404	4094	2.01	0.94	1.0000 
	6	1	-17	2752	305	3101	-2.08	-1	1.0000 
	1	-6	17	2756	261	3045	1.84	-0.87	1.0000 
	-1	-6	-17	3313	416	3739	-2.32	-0.98	1.0000 
	-1	-6	17	2479	307	2805	-2.06	0.81	1.0000 
	6	-1	-17	3118	377	3442	1.95	0.98	1.0000 
	6	-1	-17	3289	345	3622	1.95	0.98	1.0000 
	6	-2	-17	6682	511	6695	-0.03	-0.26	1.0000 
	-2	-6	-17	6730	547	6928	0.77	-0.44	1.0000 
	6	-2	-17	6658	480	6671	-0.03	-0.26	1.0000 
	-2	-6	17	5635	438	5819	0.77	0.5	1.0000 
	6	-3	-17	1676	244	1596	-0.74	-0.44	1.0000 
	-3	-6	-17	2160	326	1889	1.96	0.54	1.0000 
	-3	-6	17	2107	287	1884	1.65	-0.18	1.0000 
	6	-3	-17	2142	321	2051	-0.74	-0.44	1.0000 
	-4	-6	-17	1042	203	1109	0.63	-0.45	1.0000 
	6	-4	-17	711	224	720	0	-0.88	1.0000 
	-4	-6	17	1078	248	1126	0.45	0.34	1.0000 
	-4	-6	-17	1135	287	1205	0.63	-0.45	1.0000 
	6	-5	-17	2	113	-22	0.95	0.25	1.0000 
	-5	-6	17	51	137	69	-0.73	0.68	1.0000 
	-5	-6	-17	2	144	-18	-0.83	-0.65	1.0000 
	-5	-6	-17	10	83	19	-0.83	-0.65	1.0000 
	6	-6	-17	2714	394	2693	-0.18	0.61	1.0000 
	-6	-6	17	2508	363	2468	0.3	-0.41	1.0000 
	-6	-6	-17	2814	394	2805	0.08	0.29	1.0000 
	7	6	-17	2677	443	2982	1.9	0.28	1.0000 
	-7	-6	-17	2716	422	3032	2.06	-1.06	1.0000 
	6	-7	-17	2651	426	2940	-1.89	-0.69	1.0000 
	-7	-6	17	3913	457	4281	1.9	-0.28	1.0000 
	-7	-5	17	492	179	450	-0.64	0.17	1.0000 
	7	5	-17	47	134	35	-0.64	-0.17	1.0000 
	-7	-5	-17	56	172	44	-0.54	-0.57	1.0000 
	5	-7	-17	1	104	-73	0.43	0.4	1.0000 
	7	4	-17	3981	493	4237	-1.35	0.09	1.0000 
	4	-7	-17	3075	439	3552	2.81	0.27	1.0000 
	3	-7	-17	7092	568	6856	1	-0.45	1.0000 
	7	3	-17	7510	599	7350	-0.52	0.94	1.0000 
	2	-7	-17	9832	655	9418	-1.48	0.55	1.0000 
	7	2	-17	8733	562	8603	0.37	-0.97	1.0000 
	7	2	-17	9076	651	8943	0.37	-0.97	1.0000 
	7	1	17	5220	428	5453	1.22	2.46	1.0000 
	7	1	-17	4651	412	4869	1.21	-2.37	1.0000 
	7	1	-17	4866	466	5089	1.21	-2.37	1.0000 
	1	-7	-17	4352	460	4755	-1.78	2.08	1.0000 
	7	-1	-17	4703	443	5104	-1.69	2.15	1.0000 
	-1	-7	17	4682	385	4903	1.21	2.3	1.0000 
	7	-1	-17	4530	441	4923	-1.69	2.15	1.0000 
	-1	-7	-17	5298	501	5518	1.15	-2.39	1.0000 
	7	-2	-17	8984	622	8606	-1.4	0.4	1.0000 
	-2	-7	-17	10175	684	10075	0.25	-0.79	1.0000 
	7	-2	-17	9764	613	9369	-1.4	0.4	1.0000 
	-2	-7	17	8358	530	8188	0.52	1.12	1.0000 
	-3	-7	-17	6658	459	6533	-0.41	0.91	1.0000 
	-3	-7	17	6188	465	6035	-0.55	-0.92	1.0000 
	7	-3	-17	7475	506	7227	1.07	-0.8	1.0000 
	-3	-7	-17	6752	562	6626	-0.41	0.91	1.0000 
	7	-3	-17	7486	566	7237	1.07	-0.8	1.0000 
	-4	-7	17	3948	400	4239	-1.52	-0.01	1.0000 
	-4	-7	-17	3304	317	3534	-1.32	0.02	1.0000 
	-4	-7	-17	3831	473	4079	-1.32	0.02	1.0000 
	7	-4	-17	2632	408	3089	2.89	0.2	1.0000 
	-5	-7	-17	1	134	-141	-0.52	-0.31	1.0000 
	-5	-7	-17	138	72	120	-0.52	-0.31	1.0000 
	7	-5	-17	254	147	238	0.38	0.6	1.0000 
	-5	-7	17	47	150	39	-0.38	0.4	1.0000 
	7	-6	-17	4251	472	4623	-1.92	-0.54	1.0000 
	-6	-7	17	3339	431	3623	1.62	0.12	1.0000 
	-6	-7	-17	3324	455	3571	1.46	-0.63	1.0000 
	-7	-7	-17	11091	762	10761	1.17	-1.24	1.0000 
	-7	-7	17	10936	700	10596	1.25	1.58	1.0000 
	7	-7	-17	10441	778	10291	-0.51	-0.14	1.0000 
	7	-8	-17	8982	671	8460	1.7	2.15	1.0000 
	-8	-7	17	7084	563	6846	-1.03	0.7	1.0000 
	8	7	-17	7363	658	7120	-1.03	-0.7	1.0000 
	8	6	-17	1710	373	1689	0.29	-0.97	1.0000 
	-8	-6	17	2738	412	2712	0.29	0.97	1.0000 
	6	-8	-17	2019	377	2099	0.79	2.86	1.0000 
	8	5	-17	109	152	95	0.45	0.22	1.0000 
	5	-8	-17	165	130	169	0.1	0.81	1.0000 
	8	4	-17	4793	483	4558	-1.07	-0.9	1.0000 
	4	-8	-17	3484	428	3272	1.15	-0.72	1.0000 
	3	-8	-17	11273	757	11544	0.88	-0.33	1.0000 
	8	3	-17	10107	770	10597	-1.64	-0.3	1.0000 
	8	2	-17	13329	718	12956	-1.08	-0.15	1.0000 
	8	2	-17	10788	758	10453	-1.08	-0.15	1.0000 
	2	-8	-17	11445	751	11283	0.62	1.08	1.0000 
	8	1	-17	7530	574	7098	1.83	-1.62	1.0000 
	8	1	17	6918	505	6528	1.71	1.51	1.0000 
	8	1	-17	7211	509	6788	1.83	-1.62	1.0000 
	1	-8	-17	7457	565	7069	-1.45	1.2	1.0000 
	8	-1	-17	6483	515	6162	-1.26	1.41	1.0000 
	8	-1	-17	7210	543	6871	-1.26	1.41	1.0000 
	-1	-8	17	7333	466	6902	1.85	1.68	1.0000 
	-1	-8	-17	6621	540	6226	1.77	-1.48	1.0000 
	8	-2	-17	12037	759	11874	0.62	1.18	1.0000 
	8	-2	-17	13644	817	13471	0.62	1.18	1.0000 
	-2	-8	17	12805	691	12437	-1.04	0.66	1.0000 
	-2	-8	-17	12778	801	12341	-1.28	-0.27	1.0000 
	8	-3	-17	10515	704	10757	0.8	-0.14	1.0000 
	-3	-8	17	11413	682	11914	-1.6	0.51	1.0000 
	8	-3	-17	11142	761	11391	0.8	-0.14	1.0000 
	-3	-8	-17	11127	668	11659	-1.71	-0.46	1.0000 
	-3	-8	-17	10165	738	10674	-1.71	-0.46	1.0000 
	-4	-8	17	3771	402	3521	-1.3	0.92	1.0000 
	-4	-8	-17	3574	437	3332	-1.32	-0.71	1.0000 
	8	-4	-17	3418	421	3187	1.28	-0.65	1.0000 
	-4	-8	-17	3923	338	3669	-1.32	-0.71	1.0000 
	-5	-8	-17	177	100	164	0.35	-0.16	1.0000 
	-5	-8	-17	300	198	283	0.35	-0.16	1.0000 
	-5	-8	17	0	150	-33	0.4	-0.08	1.0000 
	8	-5	-17	72	117	74	0.1	0.87	1.0000 
	-6	-8	-17	2220	375	2179	0.41	-0.96	1.0000 
	8	-6	-17	1937	381	2024	0.85	2.62	1.0000 
	-6	-8	17	2727	382	2675	0.46	1	1.0000 
	8	-7	-17	8815	674	8319	1.65	1.76	1.0000 
	-7	-8	-17	7559	610	7165	-1.49	0.51	1.0000 
	-7	-8	17	7877	589	7539	-1.43	1.23	1.0000 
	8	-8	-17	4461	513	4016	-2.11	-1.72	1.0000 
	-8	-8	17	5066	531	5009	0.48	-1.43	1.0000 
	-9	-8	17	1660	360	1923	1.88	-1.41	1.0000 
	8	-9	-17	1617	374	1903	-2.45	-1.46	1.0000 
	-9	-7	17	2153	373	2276	-0.9	-0.27	1.0000 
	9	7	-17	2032	408	2151	-0.9	0.27	1.0000 
	7	-9	-17	2869	426	2965	0.71	1.32	1.0000 
	9	6	-17	412	188	306	-1.67	-2.17	1.0000 
	-9	-6	17	600	193	473	-1.67	2.17	1.0000 
	6	-9	-17	448	181	383	2.1	2.58	1.0000 
	5	-9	-17	245	163	240	0.16	1.47	1.0000 
	9	5	-17	305	192	341	0.53	-1.88	1.0000 
	4	-9	-17	2100	342	2015	-0.67	0.39	1.0000 
	9	4	-17	1820	380	1805	0.06	-0.64	1.0000 
	3	-9	-17	3267	413	3188	0.49	-0.27	1.0000 
	9	3	-17	4124	483	3984	-0.7	0.42	1.0000 
	9	2	-17	3446	334	3375	0.32	0.88	1.0000 
	2	-9	-17	3368	432	3435	0.36	-0.26	1.0000 
	9	2	-17	3152	434	3084	0.32	0.88	1.0000 
	9	1	-17	2338	381	2397	0.38	0.34	1.0000 
	9	1	-17	2582	360	2644	0.38	0.34	1.0000 
	1	-9	-17	2789	393	2839	-0.38	-1.12	1.0000 
	9	1	17	2724	354	2772	0.26	-0.62	1.0000 
	9	-1	-17	2124	334	2155	-0.29	-0.88	1.0000 
	9	-1	17	1923	341	1969	-0.42	1.17	1.0000 
	9	-1	-17	2208	350	2240	-0.29	-0.88	1.0000 
	-1	-9	17	1636	288	1711	0.59	-0.31	1.0000 
	-1	-9	-17	2191	371	2244	0.33	0.61	1.0000 
	-2	-9	17	3722	353	3690	0.13	-0.48	1.0000 
	-2	-9	-17	3483	425	3459	0.07	0.76	1.0000 
	9	-2	-17	3300	408	3372	0.37	-0.45	1.0000 
	9	-2	-17	2655	390	2720	0.37	-0.45	1.0000 
	-2	-9	-17	4042	417	4016	0.07	0.76	1.0000 
	9	-3	-17	3396	412	3284	0.62	0.28	1.0000 
	9	-3	-17	3576	442	3461	0.62	0.28	1.0000 
	-3	-9	17	3789	403	3640	-0.82	0	1.0000 
	-3	-9	-17	4274	464	4101	-0.88	0.13	1.0000 
	-3	-9	-17	3412	378	3258	-0.88	0.13	1.0000 
	9	-4	-17	1797	337	1740	-0.53	0.75	1.0000 
	-4	-9	-17	2114	363	2104	0.03	-0.57	1.0000 
	-4	-9	-17	1642	275	1633	0.03	-0.57	1.0000 
	-4	-9	17	1908	323	1903	-0.04	0.93	1.0000 
	-5	-9	17	220	165	233	0.15	2.09	1.0000 
	-5	-9	-17	317	198	335	0.26	-1.32	1.0000 
	-5	-9	-17	32	96	35	0.26	-1.32	1.0000 
	9	-5	-17	84	117	84	-0.03	1.1	1.0000 
	-6	-9	-17	414	173	330	-1.29	-1.45	1.0000 
	9	-6	-17	613	199	542	1.91	2.33	1.0000 
	-6	-9	17	591	195	495	-1.23	2.43	1.0000 
	-7	-9	17	2666	429	2770	-0.65	0.21	1.0000 
	-7	-9	-17	2545	405	2649	-0.69	0.02	1.0000 
	9	-7	-17	3247	478	3330	0.6	1.33	1.0000 
	-8	-9	17	1635	354	1853	1.6	-1.07	1.0000 
	9	-8	-17	1811	392	2122	-2.52	-1.59	1.0000 
	-10	-7	17	19	113	33	0.98	0.84	1.0000 
	10	7	-17	153	110	191	0.98	-0.84	1.0000 
	7	-10	-17	4	135	-4	-1.26	-0.31	1.0000 
	10	6	-17	13	156	-43	-0.52	-2.31	1.0000 
	6	-10	-17	4	104	-58	-0.46	-1.2	1.0000 
	5	-10	-17	210	119	212	-0.07	1.04	1.0000 
	10	5	-17	124	148	140	0.11	-2.58	1.0000 
	10	4	-17	2	115	-38	0.94	-0.37	1.0000 
	4	-10	-17	165	118	210	-0.49	2.42	1.0000 
	3	-10	-17	49	95	66	0.59	0.97	1.0000 
	10	3	-17	75	133	91	-0.6	-0.53	1.0000 
	10	2	-17	1	132	-12	0.68	0.06	1.0000 
	2	-10	-17	73	135	95	-0.82	-0.51	1.0000 
	10	1	-17	322	137	292	0.7	1.43	1.0000 
	1	-10	-17	129	150	112	-0.76	-1.66	1.0000 
	10	1	-17	6	76	-167	0.7	1.43	1.0000 
	10	1	17	176	82	153	0.67	-1.28	1.0000 
	10	-1	17	6	99	-81	-0.73	1.51	1.0000 
	10	-1	-17	69	129	53	-0.84	-1.56	1.0000 
	10	-1	-17	7	89	-70	-0.84	-1.56	1.0000 
	-1	-10	17	104	122	81	0.82	-1.22	1.0000 
	-1	-10	-17	150	97	126	0.76	1.45	1.0000 
	-1	-10	-17	52	127	36	0.76	1.45	1.0000 
	-2	-10	17	44	124	59	0.71	0.07	1.0000 
	-2	-10	-17	22	130	32	0.63	0.29	1.0000 
	10	-2	-17	15	106	25	-0.85	-0.56	1.0000 
	10	-2	17	67	141	82	-0.6	0.19	1.0000 
	10	-2	-17	13	115	23	-0.85	-0.56	1.0000 
	-2	-10	-17	84	97	103	0.63	0.29	1.0000 
	-3	-10	-17	74	90	97	-0.83	-0.1	1.0000 
	-3	-10	-17	49	139	68	-0.83	-0.1	1.0000 
	10	-3	-17	4	87	-99	0.6	1.12	1.0000 
	10	-3	-17	4	64	-49	0.6	1.12	1.0000 
	-3	-10	17	128	107	158	-0.84	0.6	1.0000 
	-4	-10	17	2	148	-40	0.79	0.26	1.0000 
	-4	-10	-17	88	101	115	0.91	-0.19	1.0000 
	-4	-10	-17	199	176	239	0.91	-0.19	1.0000 
	10	-4	-17	123	122	158	-0.44	2.31	1.0000 
	-5	-10	-17	128	92	147	-0.17	-2.12	1.0000 
	-5	-10	-17	85	129	99	-0.17	-2.12	1.0000 
	10	-5	-17	1	88	-118	0	0.64	1.0000 
	-5	-10	17	14	119	-25	-0.18	2.45	1.0000 
	-6	-10	17	5	145	42	-0.87	2.69	1.0000 
	-6	-10	-17	67	80	133	-0.77	-2.09	1.0000 
	10	-6	-17	45	138	73	-0.68	-1.08	1.0000 
	-7	-10	17	387	195	442	0.85	1.1	1.0000 
	10	-7	-17	118	145	162	-1.24	0.09	1.0000 
	6	-11	-17	81	147	36	-1.83	-1.03	1.0000 
	5	-11	-17	191	166	164	-0.78	0.85	1.0000 
	11	5	-17	99	152	86	0.6	-1.54	1.0000 
	11	4	-17	1242	290	1105	-1.25	-1.74	1.0000 
	4	-11	-17	732	198	656	1.31	2.25	1.0000 
	11	3	-17	2188	429	2385	-0.93	-3.12	1.0000 
	3	-11	-17	1277	292	1408	1.36	2.34	1.0000 
	2	-11	-17	1117	266	1163	-0.37	-0.7	1.0000 
	11	2	-17	684	250	760	0.94	-0.06	1.0000 
	11	1	-17	474	184	434	0.54	2.63	1.0000 
	1	-11	-17	514	182	526	-0.36	-2.09	1.0000 
	11	1	-17	326	166	291	0.54	2.63	1.0000 
	-1	-11	-17	663	202	619	0.53	2.59	1.0000 
	-1	-11	17	399	151	357	0.61	-2.56	1.0000 
	11	-1	-17	223	160	226	-0.46	-2.23	1.0000 
	11	-1	-17	316	147	321	-0.46	-2.23	1.0000 
	11	-1	17	376	150	376	-0.49	2	1.0000 
	-1	-11	-17	584	183	542	0.53	2.59	1.0000 
	-2	-11	-17	1319	275	1439	1.12	0.32	1.0000 
	11	-2	17	1588	357	1628	-0.25	0.67	1.0000 
	11	-2	-17	1403	308	1452	-0.38	-0.46	1.0000 
	11	-2	-17	1312	275	1359	-0.38	-0.46	1.0000 
	-2	-11	17	860	237	959	1.06	0.33	1.0000 
	-3	-11	17	1760	318	1964	-1.11	3.3	1.0000 
	11	-3	17	1937	419	2106	1.41	-2.75	1.0000 
	11	-3	-17	1825	354	1972	1.27	2.25	1.0000 
	11	-3	-17	2082	367	2240	1.27	2.25	1.0000 
	-3	-11	-17	2148	351	2358	-1.11	-2.72	1.0000 
	11	-4	-17	843	205	758	1.31	2.01	1.0000 
	11	-4	17	1284	318	1201	1.18	-2.29	1.0000 
	-4	-11	-17	1425	227	1252	-1.5	-1.66	1.0000 
	-4	-11	17	1457	274	1288	-1.45	1.55	1.0000 
	-5	-11	-17	192	89	177	0.57	-1.6	1.0000 
	-5	-11	17	5	135	-100	0.56	1.44	1.0000 
	11	-5	-17	151	126	130	-0.66	0.82	1.0000 
	-6	-11	-17	4	75	-25	1.1	-0.72	1.0000 
	5	-12	-17	1	134	-128	-0.23	0.58	1.0000 
	4	-12	-17	1528	333	1782	1.92	1.25	1.0000 
	12	2	-17	4311	561	4216	0.48	0.08	1.0000 
	12	1	-17	2202	338	2188	-0.08	-0.22	1.0000 
	12	1	-17	1711	348	1699	-0.08	-0.22	1.0000 
	1	-12	-17	1954	345	1998	-0.34	-0.1	1.0000 
	12	-1	-17	2615	426	2669	-0.38	-0.26	1.0000 
	-1	-12	-17	2461	389	2447	-0.08	-0.09	1.0000 
	12	-1	-17	2339	380	2390	-0.38	-0.26	1.0000 
	12	-1	17	1744	362	1805	-0.49	0.03	1.0000 
	12	-2	-17	5158	528	5211	0.14	-0.83	1.0000 
	12	-2	-17	4418	463	4467	0.14	-0.83	1.0000 
	12	-2	17	4767	589	4817	0.13	0.86	1.0000 
	-2	-12	-17	4723	434	4610	0.5	0.49	1.0000 
	-2	-12	17	4276	403	4227	0.23	-0.2	1.0000 
	12	-3	17	5829	590	5492	1.45	-0.54	1.0000 
	12	-3	-17	4932	487	4609	1.51	0.58	1.0000 
	12	-3	-17	4918	548	4595	1.51	0.58	1.0000 
	-3	-12	17	5239	467	5202	-0.32	1.15	1.0000 
	-3	-12	-17	4432	428	4365	-0.41	-0.6	1.0000 
	-4	-12	17	1479	315	1681	-1.8	0.87	1.0000 
	-4	-12	-17	1464	298	1706	-2.12	-0.67	1.0000 
	-2	-13	17	2614	356	2421	-1.21	0.61	1.0000 
	0	0	-18	380	184	716	4.57	-1.87	1.0000 
	1	0	-18	551	186	873	4.05	-0.04	1.0000 
	-1	0	-18	301	175	552	4.11	0.12	1.0000 
	0	1	-18	110	138	277	4.11	0.07	1.0000 
	0	-1	-18	259	166	487	3.99	-0.04	1.0000 
	1	1	-18	1531	216	1253	2.49	0.15	1.0000 
	-1	1	-18	1610	207	1226	3.41	0.34	1.0000 
	-1	-1	-18	1319	221	1057	2.54	0.44	1.0000 
	1	-1	-18	1855	245	1457	3.27	0.19	1.0000 
	-1	2	-18	1502	217	1546	0.37	0.42	1.0000 
	-2	-1	-18	1230	231	1182	-0.46	-0.04	1.0000 
	1	-2	-18	1079	234	1115	0.35	0.86	1.0000 
	2	1	-18	1621	223	1566	-0.46	-0.4	1.0000 
	2	0	-18	914	195	987	-0.78	0.81	1.0000 
	-2	0	-18	967	211	1029	-0.65	0.82	1.0000 
	0	2	-18	773	177	835	-0.73	0.66	1.0000 
	0	-2	-18	820	224	884	-0.72	0.98	1.0000 
	1	2	-18	1885	230	1823	-0.48	-0.38	1.0000 
	2	-1	-18	1280	229	1316	0.32	0.75	1.0000 
	-2	1	-18	1277	229	1324	0.42	0.61	1.0000 
	-1	-2	-18	1147	237	1109	-0.38	-0.07	1.0000 
	2	2	-18	2498	243	2075	2.96	-0.49	1.0000 
	-2	-2	-18	2628	303	2184	3.02	-0.37	1.0000 
	2	-2	-18	2843	308	2494	2.25	0.22	1.0000 
	-2	2	-18	2376	259	2069	2.18	0.58	1.0000 
	3	2	-18	81	84	85	0.15	0.27	1.0000 
	-2	3	-18	0	88	-68	-0.25	0.15	1.0000 
	2	-3	-18	34	108	32	-0.21	0.56	1.0000 
	-3	-2	-18	100	130	104	0.11	0.34	1.0000 
	-3	-1	-18	537	185	471	-0.98	0.25	1.0000 
	1	-3	-18	244	150	197	-1.07	0.51	1.0000 
	3	1	-18	443	136	391	-0.85	0.08	1.0000 
	-1	3	-18	285	113	231	-1.12	0.14	1.0000 
	0	-3	-18	166	142	194	-0.7	-0.31	1.0000 
	0	3	-18	227	117	257	-0.65	0.14	1.0000 
	-3	0	-18	194	137	226	-0.73	-0.11	1.0000 
	3	0	-18	259	127	291	-0.64	-0.21	1.0000 
	-3	1	-18	401	144	343	-1.01	0.3	1.0000 
	-1	-3	-18	442	181	387	-0.91	0.27	1.0000 
	1	3	-18	431	125	382	-0.82	0.06	1.0000 
	3	-1	-18	673	177	595	-1.03	0.31	1.0000 
	2	3	-18	98	89	98	0	-0.2	1.0000 
	-3	2	-18	7	102	5	-0.23	0.33	1.0000 
	3	-2	-18	14	108	11	-0.32	0.53	1.0000 
	-2	-3	-18	14	117	16	0.1	0.77	1.0000 
	3	-2	-18	77	82	71	-0.32	0.53	1.0000 
	-3	3	-18	229	133	267	0.78	-0.73	1.0000 
	-3	-3	-18	449	176	471	0.32	0.62	1.0000 
	3	3	-18	387	117	406	0.29	0.58	1.0000 
	3	-3	-18	406	173	451	0.7	-0.75	1.0000 
	3	-4	-18	519	192	525	-0.04	-1.34	1.0000 
	4	3	-18	604	137	612	0.01	2.08	1.0000 
	-4	-3	-18	666	229	682	-0.09	2.04	1.0000 
	4	2	-18	21	61	-36	-2.94	0.9	1.0000 
	-2	4	-18	136	82	53	-3.02	0.82	1.0000 
	-4	-2	-18	28	116	-45	-3.02	1.86	1.0000 
	2	-4	-18	103	117	37	-2.82	0.87	1.0000 
	1	-4	-18	1243	257	1279	-0.33	1.02	1.0000 
	4	1	-18	1197	239	1204	-0.07	-0.1	1.0000 
	-4	-1	-18	740	212	745	-0.06	-0.03	1.0000 
	-1	4	-18	1136	174	1182	-0.44	1.24	1.0000 
	4	1	-18	1251	210	1259	-0.07	-0.1	1.0000 
	-4	0	-18	283	162	384	1.84	-0.66	1.0000 
	0	-4	-18	130	156	207	2.01	-0.69	1.0000 
	0	4	-18	8	76	32	1.9	-0.61	1.0000 
	4	0	-18	26	98	65	2	-0.61	1.0000 
	4	0	-18	172	143	260	2	-0.61	1.0000 
	-4	1	-18	1102	225	1146	-0.43	1.23	1.0000 
	4	-1	-18	1288	241	1314	-0.23	1.02	1.0000 
	-1	-4	-18	1106	250	1096	0.1	-0.13	1.0000 
	4	-1	-18	1412	228	1439	-0.23	1.02	1.0000 
	-4	2	-18	245	104	131	-2.87	0.54	1.0000 
	4	-2	-18	87	92	25	-3	1.14	1.0000 
	4	-2	-18	123	95	47	-3	1.14	1.0000 
	-2	-4	-18	174	149	82	-2.97	1.12	1.0000 
	4	-3	-18	506	199	510	-0.02	-1.26	1.0000 
	-3	-4	-18	958	253	966	0.06	2.07	1.0000 
	4	-4	-18	2213	359	2557	2.32	-1.09	1.0000 
	-4	-4	-18	2030	361	2364	2.3	2.19	1.0000 
	4	-5	-18	481	200	518	-0.49	0.59	1.0000 
	-5	-4	-18	178	178	214	-0.7	1.04	1.0000 
	5	3	-18	68	145	150	2.46	1.38	1.0000 
	3	-5	-18	114	159	205	2.42	0.35	1.0000 
	-5	-3	-18	2	150	11	2.42	1.66	1.0000 
	-5	-2	-18	293	153	202	2.52	2.2	1.0000 
	5	2	-18	263	147	174	2.68	2.33	1.0000 
	5	2	-18	190	87	113	2.68	2.33	1.0000 
	2	-5	-18	17	113	-39	2.62	0.75	1.0000 
	5	1	-18	2045	292	1889	-1.19	0.89	1.0000 
	1	-5	-18	1559	285	1466	-0.8	0.44	1.0000 
	5	1	-18	1982	254	1828	-1.19	0.89	1.0000 
	-5	-1	-18	1813	286	1685	-1.04	0.75	1.0000 
	1	-5	18	1939	213	1831	-0.84	-0.5	1.0000 
	0	-5	18	424	150	597	-2.54	1.14	1.0000 
	5	0	-18	596	203	793	-2.48	-0.69	1.0000 
	0	-5	-18	438	219	600	-2.37	-0.63	1.0000 
	-5	0	-18	878	245	1125	-2.57	-1.08	1.0000 
	5	0	-18	878	228	1114	-2.48	-0.69	1.0000 
	-1	-5	18	1949	248	1798	-1.18	-0.97	1.0000 
	5	-1	-18	1990	290	1884	-0.81	0.41	1.0000 
	5	-1	-18	1500	243	1408	-0.81	0.41	1.0000 
	-1	-5	-18	1579	286	1466	-0.98	0.74	1.0000 
	5	-2	-18	159	118	81	2.44	0.68	1.0000 
	-2	-5	18	322	141	239	2.67	-2.81	1.0000 
	5	-2	-18	274	106	168	2.44	0.68	1.0000 
	-2	-5	-18	252	168	155	2.57	1.6	1.0000 
	-3	-5	-18	207	188	340	2.54	1.2	1.0000 
	-3	-5	18	89	150	184	2.44	-1.67	1.0000 
	5	-3	-18	66	136	139	2.42	0.41	1.0000 
	5	-4	-18	184	146	205	-0.5	0.22	1.0000 
	-4	-5	-18	253	204	293	-0.67	0.88	1.0000 
	-4	-5	18	97	171	127	-0.88	-0.76	1.0000 
	-5	-5	18	180	184	278	-2.16	0.73	1.0000 
	5	-5	-18	6	123	37	-2.43	0.08	1.0000 
	-5	-5	-18	37	165	88	-2.22	-0.15	1.0000 
	-6	-5	-18	3	140	-76	-1.24	0.11	1.0000 
	5	-6	-18	82	140	44	-1.62	-0.63	1.0000 
	-6	-5	18	257	183	221	-0.83	1.1	1.0000 
	6	4	-18	93	152	85	-0.53	1.3	1.0000 
	4	-6	-18	218	164	204	-0.48	0.97	1.0000 
	-6	-4	-18	11	149	0	-0.58	2.1	1.0000 
	6	3	-18	21	136	59	1.47	2.18	1.0000 
	3	-6	-18	3	127	28	2.7	2.65	1.0000 
	-6	-3	-18	3	140	8	1.53	1.94	1.0000 
	2	-6	-18	107	162	222	3.04	0	1.0000 
	-6	-2	-18	173	165	292	2.62	-0.52	1.0000 
	6	2	-18	88	153	180	2.67	0.39	1.0000 
	6	2	-18	116	85	219	2.67	0.39	1.0000 
	1	-6	-18	499	209	560	-0.86	-0.6	1.0000 
	6	1	-18	777	195	793	-0.19	-0.15	1.0000 
	6	1	-18	504	197	517	-0.19	-0.15	1.0000 
	0	-6	-18	16	116	-134	-2.47	0.98	1.0000 
	6	0	-18	279	134	186	-2.37	0.89	1.0000 
	0	-6	18	191	123	114	-2.36	-0.82	1.0000 
	6	0	-18	14	82	-28	-2.37	0.89	1.0000 
	-1	-6	18	440	157	443	-0.05	0.05	1.0000 
	6	-1	-18	315	159	354	-0.71	-0.44	1.0000 
	-1	-6	-18	832	253	844	-0.13	-0.06	1.0000 
	6	-1	-18	514	184	564	-0.71	-0.44	1.0000 
	-2	-6	18	17	130	-15	2.73	0.04	1.0000 
	6	-2	-18	65	108	158	3	-0.17	1.0000 
	-2	-6	-18	15	129	-72	2.55	-0.26	1.0000 
	6	-2	-18	154	155	286	3	-0.17	1.0000 
	6	-3	-18	30	98	-16	2.6	2.55	1.0000 
	-3	-6	18	49	142	105	1.47	-2.16	1.0000 
	-3	-6	-18	65	147	116	1.47	1.75	1.0000 
	-4	-6	-18	227	192	223	-0.42	1.38	1.0000 
	-4	-6	18	178	167	176	-0.62	-1.76	1.0000 
	6	-4	-18	25	125	17	-0.59	0.67	1.0000 
	-4	-6	-18	123	87	119	-0.42	1.38	1.0000 
	6	-5	-18	103	125	58	-1.7	-1.06	1.0000 
	-5	-6	-18	130	156	108	-0.67	-0.27	1.0000 
	-5	-6	18	14	138	6	-0.74	0.79	1.0000 
	-6	-6	18	292	180	301	-0.19	-0.41	1.0000 
	6	-6	-18	59	154	62	-0.15	1.59	1.0000 
	-6	-6	-18	327	205	331	-0.04	-0.55	1.0000 
	6	-7	-18	115	143	153	0.91	2	1.0000 
	-7	-6	18	200	180	238	0.76	-1.12	1.0000 
	-7	-6	-18	119	162	145	0.67	1.33	1.0000 
	5	-7	-18	24	120	-62	2.86	1.62	1.0000 
	-7	-5	-18	15	139	-142	2.41	-0.92	1.0000 
	7	5	-18	17	130	-14	2.77	-0.19	1.0000 
	4	-7	-18	130	180	276	3.13	1.75	1.0000 
	7	4	-18	27	162	101	3.23	-0.13	1.0000 
	7	3	-18	7	144	14	-1.57	2.71	1.0000 
	3	-7	-18	64	138	120	-1.74	1.58	1.0000 
	2	-7	-18	40	155	109	-2.71	-0.4	1.0000 
	7	2	-18	20	71	-19	-2.89	-0.74	1.0000 
	7	2	-18	104	157	216	-2.89	-0.74	1.0000 
	7	1	-18	373	172	427	0.76	-1.43	1.0000 
	7	1	-18	228	126	269	0.76	-1.43	1.0000 
	1	-7	-18	273	173	303	0.57	0.4	1.0000 
	7	0	-18	21	127	61	1.57	1.87	1.0000 
	7	0	-18	53	98	111	1.57	1.87	1.0000 
	0	-7	-18	13	140	42	1.48	1.75	1.0000 
	0	-7	18	13	96	-80	1.7	-1.74	1.0000 
	7	-1	-18	24	109	35	0.65	0.28	1.0000 
	7	-1	-18	221	123	251	0.65	0.28	1.0000 
	-1	-7	18	176	150	213	0.79	1.43	1.0000 
	-1	-7	-18	275	177	320	0.7	-1.68	1.0000 
	7	-2	-18	7	100	2	-2.69	-0.52	1.0000 
	-2	-7	18	45	148	125	-2.9	0.81	1.0000 
	7	-2	-18	74	143	161	-2.69	-0.52	1.0000 
	-2	-7	-18	95	170	203	-2.84	-1.02	1.0000 
	-3	-7	-18	102	156	176	-1.55	2.32	1.0000 
	-3	-7	18	150	164	230	-1.53	-1.96	1.0000 
	7	-3	-18	76	130	134	-1.77	1.15	1.0000 
	-4	-7	-18	1	83	33	3.21	0.37	1.0000 
	7	-4	-18	126	144	267	3.19	1.38	1.0000 
	-4	-7	18	2	144	41	3.37	0.49	1.0000 
	-4	-7	-18	95	189	212	3.21	0.37	1.0000 
	7	-5	-18	23	78	-141	2.95	1.25	1.0000 
	-5	-7	-18	17	162	-111	2.62	-0.92	1.0000 
	-5	-7	-18	157	84	77	2.62	-0.92	1.0000 
	-5	-7	18	330	174	200	2.69	0.13	1.0000 
	-6	-7	18	143	157	219	1.53	-2.74	1.0000 
	7	-6	-18	256	173	321	1.04	1.92	1.0000 
	-6	-7	-18	252	198	359	2.03	-0.68	1.0000 
	7	-7	-18	271	181	426	-2.03	-2.59	1.0000 
	-7	-7	-18	27	135	-108	-0.66	3.39	1.0000 
	-7	-7	18	342	201	381	-0.65	0.38	1.0000 
	7	-8	-18	161	196	571	-3.25	-6.91	1.0000 
	-8	-7	18	118	199	372	-2.93	5	1.0000 
	-8	-6	18	199	176	311	0.25	3.27	1.0000 
	8	6	-18	28	118	67	0.25	-3.27	1.0000 
	6	-8	-18	27	107	-127	-0.55	-3.41	1.0000 
	8	5	-18	23	133	-56	2.94	1.29	1.0000 
	5	-8	-18	21	117	107	3.06	2.31	1.0000 
	8	4	-18	186	169	274	1.93	-0.29	1.0000 
	4	-8	-18	119	170	241	2.06	3.79	1.0000 
	3	-8	-18	293	197	429	-2.32	1.28	1.0000 
	8	3	-18	330	194	418	-1.51	-0.65	1.0000 
	2	-8	-18	1143	264	929	-2.23	0.61	1.0000 
	8	2	-18	1530	303	1297	-2.12	1.13	1.0000 
	8	2	-18	1017	185	828	-2.12	1.13	1.0000 
	8	1	-18	2774	347	2804	-0.19	0.19	1.0000 
	1	-8	-18	1929	332	1850	0.61	0.44	1.0000 
	8	1	18	2099	305	2123	-0.17	0.17	1.0000 
	8	1	-18	2192	353	2218	-0.19	0.19	1.0000 
	0	-8	-18	767	266	873	1.21	-1.1	1.0000 
	8	0	-18	1094	258	1219	1.21	-0.89	1.0000 
	0	-8	18	903	217	1018	1.22	0.95	1.0000 
	8	0	-18	655	230	752	1.21	-0.89	1.0000 
	-1	-8	18	2249	291	2259	-0.07	-0.16	1.0000 
	8	-1	-18	1637	295	1566	0.59	-0.14	1.0000 
	8	-1	-18	1756	305	1683	0.59	-0.14	1.0000 
	-1	-8	-18	2302	368	2348	-0.32	-0.36	1.0000 
	8	-2	-18	765	182	602	-2.1	0.68	1.0000 
	8	-2	-18	1102	227	905	-2.1	0.68	1.0000 
	-2	-8	-18	905	246	727	-2.11	1.04	1.0000 
	-2	-8	18	1033	215	851	-2.03	-1.17	1.0000 
	-3	-8	-18	180	188	251	-1.59	-0.89	1.0000 
	8	-3	-18	304	181	445	-2.35	1.4	1.0000 
	-3	-8	18	428	191	544	-1.65	1.3	1.0000 
	-3	-8	-18	570	158	693	-1.59	-0.89	1.0000 
	-4	-8	-18	199	196	289	1.84	-1.01	1.0000 
	8	-4	-18	137	149	252	1.95	3.3	1.0000 
	-4	-8	-18	255	125	356	1.84	-1.01	1.0000 
	-4	-8	18	254	189	365	1.96	1.29	1.0000 
	-5	-8	18	12	134	-67	2.18	-0.72	1.0000 
	-5	-8	-18	101	84	164	1.83	-0.1	1.0000 
	-5	-8	-18	8	122	-163	1.83	-0.1	1.0000 
	8	-5	-18	31	81	-129	3.09	2.07	1.0000 
	8	-6	-18	55	132	116	-0.54	-3.05	1.0000 
	-6	-8	-18	231	149	230	0.25	-0.75	1.0000 
	-6	-8	18	4	144	-6	0.37	1.25	1.0000 
	8	-7	-18	68	171	360	-3.24	-6.61	1.0000 
	-7	-8	18	106	175	157	-0.71	1.82	1.0000 
	-7	-8	-18	327	188	409	-0.67	1.74	1.0000 
	8	-8	-18	56	127	146	-2.27	-2.8	1.0000 
	-8	-8	18	242	206	333	-1.79	0.19	1.0000 
	8	-9	-18	144	168	185	0.73	1.88	1.0000 
	-9	-7	18	138	155	240	-1.51	2.56	1.0000 
	9	7	-18	16	142	53	-1.51	-2.56	1.0000 
	7	-9	-18	100	144	180	-0.72	-2.99	1.0000 
	9	6	-18	26	122	-161	-1.69	-2.99	1.0000 
	6	-9	-18	35	129	207	-1.71	-5.41	1.0000 
	5	-9	-18	14	132	36	-0.6	-1.82	1.0000 
	9	5	-18	3	132	-14	-0.01	1.13	1.0000 
	4	-9	-18	3	134	25	-1.98	1.98	1.0000 
	9	4	-18	67	127	116	-1.63	-0.66	1.0000 
	3	-9	-18	79	126	163	-0.17	3.3	1.0000 
	9	3	-18	28	150	80	-0.65	-3.13	1.0000 
	9	2	-18	14	89	-126	2.16	1.18	1.0000 
	9	2	-18	59	83	128	2.16	1.18	1.0000 
	2	-9	-18	20	106	-116	2.13	2.07	1.0000 
	9	1	-18	50	96	78	-0.68	1.41	1.0000 
	9	1	-18	91	134	129	-0.68	1.41	1.0000 
	1	-9	-18	68	144	109	-1.27	-0.9	1.0000 
	9	0	-18	578	141	383	-3.02	-1.1	1.0000 
	9	0	18	346	133	200	-2.98	0.94	1.0000 
	0	-9	-18	579	217	386	-3.02	-1.54	1.0000 
	9	0	-18	633	197	428	-3.02	-1.1	1.0000 
	-1	-9	18	10	117	-18	-0.65	-2.02	1.0000 
	9	-1	-18	6	86	20	-1.3	0.11	1.0000 
	-1	-9	-18	112	163	156	-0.69	1.49	1.0000 
	9	-1	18	22	118	47	-1.21	0.96	1.0000 
	9	-1	-18	95	114	137	-1.3	0.11	1.0000 
	-2	-9	-18	13	112	53	2.21	1.16	1.0000 
	-2	-9	-18	36	172	94	2.21	1.16	1.0000 
	9	-2	-18	49	129	133	2.15	2.34	1.0000 
	9	-2	-18	82	124	186	2.15	2.34	1.0000 
	-2	-9	18	72	135	148	2.29	-0.98	1.0000 
	-3	-9	18	10	146	43	-0.47	3.5	1.0000 
	9	-3	-18	59	107	137	0.12	3.5	1.0000 
	-3	-9	-18	34	166	86	-0.57	-3	1.0000 
	-3	-9	-18	104	118	192	-0.57	-3	1.0000 
	-4	-9	-18	54	181	99	-1.38	-1.36	1.0000 
	-4	-9	18	146	147	209	-1.38	1.02	1.0000 
	-4	-9	-18	21	99	51	-1.38	-1.36	1.0000 
	9	-4	-18	25	89	70	-1.46	2.4	1.0000 
	-5	-9	-18	105	150	150	-0.43	1.52	1.0000 
	-5	-9	18	23	162	39	-0.01	-1.44	1.0000 
	9	-5	-18	5	71	-77	-0.64	-1.42	1.0000 
	-5	-9	-18	109	91	154	-0.43	1.52	1.0000 
	9	-6	-18	73	109	-139	-2.29	-5.24	1.0000 
	-6	-9	18	78	153	194	-2.43	2.42	1.0000 
	-6	-9	-18	110	160	224	-2.98	0.38	1.0000 
	-7	-9	18	8	137	-217	-1.3	1.32	1.0000 
	9	-7	-18	170	151	286	-0.98	-3.1	1.0000 
	-7	-9	-18	1	119	3	-1.17	-0.76	1.0000 
	7	-10	-18	184	124	200	-0.38	0.35	1.0000 
	6	-10	-18	303	129	187	-2.5	-0.34	1.0000 
	10	6	-18	130	146	53	-2.81	1.32	1.0000 
	10	5	-18	19	113	-194	-2.3	-1.77	1.0000 
	5	-10	-18	11	109	46	-2.11	-0.87	1.0000 
	4	-10	-18	18	106	-113	-1.01	-2.63	1.0000 
	10	4	-18	40	96	-192	-0.2	-4.23	1.0000 
	3	-10	-18	2	82	-36	0.84	-0.31	1.0000 
	10	3	-18	7	127	24	1.54	-1.11	1.0000 
	2	-10	-18	105	107	67	1.72	1.07	1.0000 
	10	2	-18	146	147	148	1.38	2.37	1.0000 
	1	-10	-18	25	101	33	-0.2	-1.35	1.0000 
	10	1	-18	63	76	89	-0.18	1.56	1.0000 
	10	1	-18	74	120	103	-0.18	1.56	1.0000 
	10	0	-18	256	124	331	-1.46	-0.01	1.0000 
	10	0	18	297	159	370	-1.32	0.3	1.0000 
	0	-10	-18	358	208	442	-1.4	-0.39	1.0000 
	10	0	-18	326	174	410	-1.46	-0.01	1.0000 
	10	-1	-18	76	107	82	-0.44	0.89	1.0000 
	10	-1	18	253	162	295	-0.02	1.45	1.0000 
	-1	-10	-18	103	139	160	-0.37	2.19	1.0000 
	-1	-10	18	13	106	-6	-0.46	-2.36	1.0000 
	10	-1	-18	2	66	-67	-0.44	0.89	1.0000 
	-1	-10	-18	11	75	-16	-0.37	2.19	1.0000 
	10	-2	-18	13	78	-75	1.62	1.76	1.0000 
	-2	-10	-18	16	93	2	1.21	2.53	1.0000 
	-2	-10	-18	62	142	62	1.21	2.53	1.0000 
	10	-2	-18	13	75	-33	1.62	1.76	1.0000 
	-2	-10	18	45	119	45	1.31	-2.83	1.0000 
	10	-2	18	193	140	151	1.72	-1.37	1.0000 
	10	-3	-18	172	110	225	1.24	-0.5	1.0000 
	-3	-10	-18	120	147	178	1.54	-0.72	1.0000 
	-3	-10	-18	207	126	281	1.54	-0.72	1.0000 
	-3	-10	18	9	114	-1	1.64	1.12	1.0000 
	10	-4	-18	109	89	172	-0.28	-1.88	1.0000 
	-4	-10	18	17	133	102	-0.12	4.11	1.0000 
	-4	-10	-18	37	145	129	-0.18	-3.6	1.0000 
	-4	-10	-18	14	82	82	-0.18	-3.6	1.0000 
	10	-5	-18	12	106	-146	-2.16	-0.73	1.0000 
	-5	-10	-18	11	76	-171	-2.03	-0.8	1.0000 
	-5	-10	18	104	120	188	-1.92	1.38	1.0000 
	-5	-10	-18	11	107	-185	-2.03	-0.8	1.0000 
	-6	-10	-18	70	161	14	-3.07	1.2	1.0000 
	10	-6	-18	329	108	192	-2.89	-0.87	1.0000 
	-6	-10	18	133	165	51	-2.96	-0.95	1.0000 
	6	-11	-18	127	117	155	-0.57	1.97	1.0000 
	5	-11	-18	3	112	17	-0.99	1.28	1.0000 
	11	4	-18	1	114	-118	-0.48	0.41	1.0000 
	4	-11	-18	54	112	89	-0.12	-2.65	1.0000 
	11	3	-18	167	156	198	-0.05	1.17	1.0000 
	3	-11	-18	65	101	-55	-1.62	-5.12	1.0000 
	2	-11	-18	25	110	100	-2.2	-2.95	1.0000 
	11	2	-18	47	117	86	-1.49	-0.87	1.0000 
	1	-11	-18	4	112	35	2.63	0.12	1.0000 
	11	1	-18	32	88	79	2.05	-0.88	1.0000 
	11	1	-18	68	126	133	2.05	-0.88	1.0000 
	0	-11	-18	7	121	102	4.95	0.51	1.0000 
	11	0	-18	27	105	162	5.05	0.6	1.0000 
	11	0	18	47	91	205	4.99	0.12	1.0000 
	0	-11	-18	0	98	48	4.95	0.51	1.0000 
	11	0	-18	20	88	146	5.05	0.6	1.0000 
	-1	-11	-18	46	116	100	2.1	-0.59	1.0000 
	-1	-11	-18	60	119	120	2.1	-0.59	1.0000 
	11	-1	-18	29	90	86	2.51	0.98	1.0000 
	11	-1	-18	32	120	90	2.51	0.98	1.0000 
	-2	-11	-18	59	91	95	-1.39	0	1.0000 
	11	-2	18	43	143	131	-2.1	2.88	1.0000 
	-2	-11	-18	41	132	72	-1.39	0	1.0000 
	11	-2	-18	38	102	106	-2.15	-2.03	1.0000 
	-2	-11	18	65	124	114	-1.63	-0.74	1.0000 
	11	-2	-18	69	112	156	-2.15	-2.03	1.0000 
	-3	-11	18	212	149	326	-0.6	-2.62	1.0000 
	11	-3	18	113	186	315	-1.52	4.77	1.0000 
	-3	-11	-18	29	99	59	-0.25	1.98	1.0000 
	11	-3	-18	57	110	219	-1.52	-4.91	1.0000 
	-4	-11	-18	191	105	229	-0.77	0.81	1.0000 
	11	-4	18	349	275	425	-0.15	2.22	1.0000 
	11	-4	-18	9	118	2	-0.3	-2.55	1.0000 
	-4	-11	18	2	106	-3	-0.81	-0.63	1.0000 
	-5	-11	18	10	148	-5	-1.87	1	1.0000 
	-5	-11	-18	8	91	-53	-1.81	-0.68	1.0000 
	4	-12	-18	177	149	204	0.61	-0.54	1.0000 
	3	-12	-18	102	146	284	-2.56	-4.57	1.0000 
	12	2	-18	92	175	294	-2.04	-4.7	1.0000 
	12	1	-18	1	112	20	2.32	-1.24	1.0000 
	12	0	-18	132	102	19	4.7	2.57	1.0000 
	12	0	18	58	76	-85	4.45	-2.42	1.0000 
	12	0	-18	371	122	163	4.7	2.57	1.0000 
	0	-12	-18	58	112	-14	4.39	2.55	1.0000 
	-1	-12	-18	76	142	169	2.72	-1.11	1.0000 
	12	-1	-18	198	136	278	1.65	0.62	1.0000 
	12	-1	18	68	101	121	1.68	-0.8	1.0000 
	12	-1	-18	20	122	50	1.65	0.62	1.0000 
	-2	-12	18	262	169	536	-2.07	4.22	1.0000 
	-2	-12	-18	149	141	336	-1.13	-4.02	1.0000 
	12	-2	-18	31	114	195	-3.62	-4.4	1.0000 
	12	-2	-18	40	128	218	-3.62	-4.4	1.0000 
	12	-2	18	51	129	271	-3.61	5.15	1.0000 
	-3	-12	18	134	163	264	-3.01	-1.03	1.0000 
	12	-3	18	76	169	232	-2.53	4.41	1.0000 
	-3	-12	-18	449	156	625	-2.53	-0.06	1.0000 
	1	1	-19	1995	266	2031	0.28	-0.09	1.0000 
	-1	-1	-19	2047	285	2093	0.32	0.24	1.0000 
	-1	1	-19	1723	251	1827	-0.82	0.07	1.0000 
	1	-1	-19	1429	254	1536	-0.96	-0.28	1.0000 
	-2	-1	-19	5821	462	5965	-0.73	1.27	1.0000 
	2	1	-19	5515	420	5650	-0.7	1.21	1.0000 
	-1	2	-19	5570	411	5640	0.21	-0.97	1.0000 
	1	-2	-19	6038	475	6083	0.13	-0.65	1.0000 
	-2	1	-19	5181	424	5257	0.26	-0.88	1.0000 
	1	2	-19	5773	411	5916	-0.73	1.28	1.0000 
	-1	-2	-19	6208	478	6327	-0.61	1.36	1.0000 
	2	-1	-19	5067	415	5105	0.1	-0.74	1.0000 
	2	2	-19	14463	694	13592	-2.67	1.87	1.0000 
	-2	2	-19	14113	717	13440	1.84	-0.84	1.0000 
	-2	-2	-19	13837	762	12988	-2.69	2.1	1.0000 
	2	-2	-19	14252	760	13529	1.99	-0.74	1.0000 
	3	2	-19	12523	689	13171	-1.9	-0.17	1.0000 
	-3	-2	-19	12316	778	13029	-2.09	-0.32	1.0000 
	2	-3	-19	13404	791	14284	2.26	-2.17	1.0000 
	-2	3	-19	12615	699	13329	1.9	-1.82	1.0000 
	-3	-1	-19	4873	424	4865	-0.08	0.35	1.0000 
	1	-3	-19	4960	428	4818	0.67	-0.09	1.0000 
	3	1	-19	4376	362	4378	-0.08	0.91	1.0000 
	-1	3	-19	4975	364	4886	0.32	-1.17	1.0000 
	3	-1	-19	4274	377	4174	0.49	-0.25	1.0000 
	1	3	-19	5075	361	5112	0.07	0.97	1.0000 
	-1	-3	-19	4484	424	4463	-0.17	0.59	1.0000 
	-3	1	-19	5508	418	5362	0.57	-1.1	1.0000 
	3	-2	-19	12832	765	13644	2.13	-2.05	1.0000 
	-2	-3	-19	12257	783	12947	-2.05	-0.11	1.0000 
	2	3	-19	12332	676	12976	-1.9	-0.21	1.0000 
	-3	2	-19	13409	734	14179	1.98	-1.94	1.0000 
	-3	-3	-19	17798	942	17417	-0.87	-1.23	1.0000 
	3	-3	-19	17565	931	17391	0.25	-2.85	1.0000 
	-3	3	-19	17398	856	17294	0.19	-0.93	1.0000 
	3	3	-19	18134	824	17727	-0.87	-2.02	1.0000 
	-4	-3	-19	5596	465	4949	2.87	1.45	1.0000 
	3	-4	-19	6358	479	5682	-3.04	-1.13	1.0000 
	-4	-2	-19	2641	349	2562	-0.44	-0.7	1.0000 
	4	2	-19	2665	267	2638	-0.13	-0.38	1.0000 
	-2	4	-19	2964	271	2856	0.51	-1.51	1.0000 
	2	-4	-19	3322	386	3217	0.46	-1.49	1.0000 
	-4	-1	-19	1478	296	1681	-1.5	-1.88	1.0000 
	4	1	-19	1911	260	2135	-1.44	-1.98	1.0000 
	1	-4	-19	2074	331	2324	1.87	1.18	1.0000 
	-1	4	-19	1637	223	1808	1.46	1.1	1.0000 
	4	-1	-19	2131	307	2361	1.71	1.15	1.0000 
	-4	1	-19	1925	297	2149	1.75	1.11	1.0000 
	4	-1	-19	2105	284	2334	1.71	1.15	1.0000 
	-1	-4	-19	1510	312	1733	-1.67	-1.66	1.0000 
	-4	2	-19	2843	317	2736	0.53	-1.35	1.0000 
	-2	-4	-19	2720	366	2648	-0.41	-0.5	1.0000 
	4	-2	-19	3081	360	2968	0.51	-1.72	1.0000 
	4	-3	-19	5312	437	4723	-2.93	-1.35	1.0000 
	-3	-4	-19	5454	457	4793	2.99	1.28	1.0000 
	-4	-4	-19	989	289	1189	1.82	1.33	1.0000 
	4	-4	-19	665	242	860	-2.33	0.31	1.0000 
	-5	-4	-19	936	266	900	-0.4	-0.14	1.0000 
	4	-5	-19	748	237	764	-0.19	-0.29	1.0000 
	-5	-3	-19	62	156	28	2.63	1.25	1.0000 
	3	-5	-19	166	139	120	-2.79	1.35	1.0000 
	5	2	-19	970	206	1208	2.41	0.49	1.0000 
	-5	-2	-19	1178	282	1400	2.07	0.29	1.0000 
	5	2	-19	947	263	1183	2.41	0.49	1.0000 
	2	-5	-19	695	238	842	-1.75	1.37	1.0000 
	-5	-1	-19	208	148	223	-0.34	0.01	1.0000 
	5	1	-19	242	104	259	-0.35	-0.63	1.0000 
	5	1	-19	169	147	183	-0.35	-0.63	1.0000 
	1	-5	-19	181	156	204	0.54	-0.6	1.0000 
	5	-1	-19	214	126	236	0.45	-0.77	1.0000 
	-1	-5	-19	138	158	150	-0.33	-0.33	1.0000 
	5	-1	-19	204	141	225	0.45	-0.77	1.0000 
	-1	-5	19	211	132	228	-0.39	0.29	1.0000 
	-2	-5	-19	1046	283	1273	2.23	0.25	1.0000 
	5	-2	-19	887	246	1044	-1.67	0.89	1.0000 
	-2	-5	19	803	221	1023	2.44	-0.61	1.0000 
	5	-2	-19	951	217	1113	-1.67	0.89	1.0000 
	-3	-5	-19	140	156	121	2.79	1.89	1.0000 
	-3	-5	19	165	139	164	3.05	-2.15	1.0000 
	5	-3	-19	72	113	33	-2.71	1.13	1.0000 
	-4	-5	-19	998	277	961	-0.39	-0.05	1.0000 
	-4	-5	19	991	232	956	-0.38	-0.47	1.0000 
	5	-4	-19	1096	284	1111	-0.13	-0.5	1.0000 
	5	-5	-19	1687	343	1869	1.41	-1.34	1.0000 
	-5	-5	-19	1687	348	1922	-1.8	-1.6	1.0000 
	5	-6	-19	187	175	178	0.23	-0.1	1.0000 
	-6	-5	-19	231	176	234	-0.65	-1.89	1.0000 
	-6	-4	-19	1840	351	1962	-0.71	-1.49	1.0000 
	4	-6	-19	1309	306	1473	1.19	-1.8	1.0000 
	6	4	-19	1454	312	1554	-0.72	-1.04	1.0000 
	6	3	-19	2684	375	2508	-1.19	0.28	1.0000 
	-6	-3	-19	3578	413	3343	-1.3	-0.34	1.0000 
	3	-6	-19	2462	353	2285	1.3	0.56	1.0000 
	6	2	-19	5939	412	5357	2.59	0.06	1.0000 
	2	-6	-19	5178	464	4678	-2.25	1.96	1.0000 
	6	2	-19	6259	500	5661	2.59	0.06	1.0000 
	-6	-2	-19	5856	483	5337	2.32	-0.01	1.0000 
	-6	-1	-19	2560	378	3036	2.83	1.89	1.0000 
	6	1	-19	2547	382	3041	2.88	2.39	1.0000 
	6	1	-19	2740	329	3252	2.88	2.39	1.0000 
	1	-6	-19	3009	422	3468	-2.77	-1.31	1.0000 
	-1	-6	-19	2200	379	2623	2.73	1.64	1.0000 
	6	-1	-19	2985	355	3436	-2.74	-1.6	1.0000 
	6	-1	-19	1964	317	2332	-2.74	-1.6	1.0000 
	-1	-6	19	2405	319	2879	2.81	-2.59	1.0000 
	6	-2	-19	5669	426	5170	-2.14	1.91	1.0000 
	-2	-6	-19	6351	522	5747	2.6	0.01	1.0000 
	-2	-6	19	5899	416	5324	2.56	-0.13	1.0000 
	6	-2	-19	6277	486	5752	-2.14	1.91	1.0000 
	6	-3	-19	3442	412	3214	1.43	0.76	1.0000 
	-3	-6	-19	2352	362	2182	-1.26	0.51	1.0000 
	-3	-6	19	3664	376	3423	-1.3	0.52	1.0000 
	-4	-6	-19	1879	261	2003	-0.71	-1.48	1.0000 
	-4	-6	19	1422	288	1541	-0.87	1.21	1.0000 
	6	-4	-19	1495	325	1685	1.26	-2.03	1.0000 
	-4	-6	-19	1622	351	1737	-0.71	-1.48	1.0000 
	6	-5	-19	224	159	226	0.04	-0.63	1.0000 
	-5	-6	-19	13	159	-61	-0.49	-2.39	1.0000 
	-5	-6	19	206	184	227	-0.41	2.26	1.0000 
	-6	-6	-19	1514	317	1372	-1.19	-1.12	1.0000 
	6	-6	-19	1068	296	1063	0.22	1.67	1.0000 
	-6	-6	19	991	246	885	-1.08	1.26	1.0000 
	-7	-6	19	2384	384	2397	-0.1	-0.11	1.0000 
	-7	-6	-19	3439	447	3385	0.4	-0.9	1.0000 
	6	-7	-19	2521	422	2599	0.57	0.68	1.0000 
	5	-7	-19	21	112	2	-1.94	1.85	1.0000 
	7	5	-19	285	166	215	2.02	-1.57	1.0000 
	-7	-5	-19	124	150	85	2.16	-2.2	1.0000 
	4	-7	-19	3145	430	3283	-0.79	-0.28	1.0000 
	-7	-4	-19	3236	444	3411	0.79	-1.67	1.0000 
	7	4	-19	3346	462	3535	0.83	-1.81	1.0000 
	3	-7	-19	9043	682	9419	1.42	-1.19	1.0000 
	7	3	-19	8319	690	8814	-1.77	0.21	1.0000 
	7	2	-19	9341	686	9126	-0.77	0.21	1.0000 
	7	2	-19	10091	615	9867	-0.77	0.21	1.0000 
	2	-7	-19	9372	680	9368	0.01	-0.01	1.0000 
	1	-7	-19	4451	447	4362	-0.53	0.84	1.0000 
	7	1	-19	3480	356	3459	0.1	-0.23	1.0000 
	7	1	-19	4485	444	4461	0.1	-0.23	1.0000 
	-1	-7	-19	4535	459	4531	-0.04	-0.68	1.0000 
	-1	-7	19	4037	362	4016	0.05	0.66	1.0000 
	7	-1	-19	3994	397	3932	-0.43	0.96	1.0000 
	7	-1	-19	4320	413	4256	-0.43	0.96	1.0000 
	-2	-7	19	8822	567	8617	-0.71	0.22	1.0000 
	7	-2	-19	10735	668	10713	0.11	0.37	1.0000 
	7	-2	-19	9659	677	9638	0.11	0.37	1.0000 
	-2	-7	-19	9483	686	9312	-0.64	0.47	1.0000 
	-3	-7	-19	7351	634	7787	-1.59	0.83	1.0000 
	7	-3	-19	9512	683	9865	1.34	-1.5	1.0000 
	-3	-7	19	7352	549	7812	-1.73	-0.35	1.0000 
	-4	-7	-19	4010	502	4223	0.84	-1.9	1.0000 
	-4	-7	19	3396	413	3555	0.71	1.49	1.0000 
	7	-4	-19	4045	478	4198	-0.72	-0.65	1.0000 
	-4	-7	-19	3940	353	4151	0.84	-1.9	1.0000 
	7	-5	-19	28	121	7	-1.93	1.92	1.0000 
	-5	-7	-19	173	177	123	2.13	-1.94	1.0000 
	-5	-7	19	312	175	228	2.21	1.46	1.0000 
	-6	-7	-19	2462	395	2524	-0.36	-0.63	1.0000 
	-6	-7	19	2463	384	2500	-0.23	0.21	1.0000 
	7	-6	-19	3262	468	3356	0.6	0.62	1.0000 
	7	-7	-19	8945	681	8225	2.83	-2.11	1.0000 
	-7	-7	-19	8961	680	8458	-1.82	-0.12	1.0000 
	-7	-7	19	8682	620	8138	-2.07	0.83	1.0000 
	7	-8	-19	6479	623	6891	1.72	-0.31	1.0000 
	-8	-7	19	5901	549	6297	-1.67	-0.31	1.0000 
	6	-8	-19	2434	398	2175	1.92	-0.77	1.0000 
	8	6	-19	1709	356	1550	-1.15	1.96	1.0000 
	5	-8	-19	217	159	199	0.64	1.14	1.0000 
	8	5	-19	93	167	99	-0.51	2.17	1.0000 
	4	-8	-19	2603	381	2476	-1.07	1.54	1.0000 
	8	4	-19	2533	407	2482	0.26	-0.73	1.0000 
	3	-8	-19	7496	632	7908	-1.5	-0.72	1.0000 
	8	3	-19	7717	674	8235	1.75	-1.67	1.0000 
	8	2	-19	9628	718	9719	-0.3	-0.11	1.0000 
	8	2	-19	9915	627	10008	-0.3	-0.11	1.0000 
	2	-8	-19	8001	662	8236	0.65	-1.82	1.0000 
	8	1	-19	4634	398	4257	-1.89	-0.03	1.0000 
	8	1	-19	4679	449	4300	-1.89	-0.03	1.0000 
	1	-8	-19	5411	498	5088	1.45	-0.45	1.0000 
	8	-1	-19	4748	444	4455	1.43	-0.21	1.0000 
	8	-1	-19	5421	459	5107	1.43	-0.21	1.0000 
	-1	-8	-19	4924	507	4533	-1.9	-0.05	1.0000 
	-1	-8	19	5378	399	4960	-1.94	0.05	1.0000 
	-2	-8	19	9177	596	9295	-0.35	0.61	1.0000 
	8	-2	-19	9903	700	10139	0.59	-1.66	1.0000 
	8	-2	-19	9448	669	9678	0.59	-1.66	1.0000 
	-2	-8	-19	9180	707	9315	-0.44	-0.32	1.0000 
	-3	-8	-19	8187	670	8732	1.8	-1.62	1.0000 
	-3	-8	19	7585	563	8089	1.75	1.38	1.0000 
	-3	-8	-19	8693	579	9255	1.8	-1.62	1.0000 
	8	-3	-19	7038	617	7482	-1.65	-0.91	1.0000 
	-4	-8	-19	3321	356	3278	0.17	-0.68	1.0000 
	8	-4	-19	3795	454	3637	-1.04	1.22	1.0000 
	-4	-8	-19	2686	414	2648	0.17	-0.68	1.0000 
	-4	-8	19	2793	375	2732	0.33	0.51	1.0000 
	-5	-8	-19	200	172	200	-0.41	1.54	1.0000 
	8	-5	-19	21	119	13	0.73	1.28	1.0000 
	-5	-8	19	26	132	23	-0.41	-1.75	1.0000 
	8	-6	-19	1498	320	1292	1.97	-0.88	1.0000 
	-6	-8	19	1823	320	1682	-0.95	-2.01	1.0000 
	-6	-8	-19	1973	362	1836	-0.87	2.42	1.0000 
	-7	-8	19	6516	566	6996	-1.98	0.14	1.0000 
	8	-7	-19	5393	573	5815	1.94	-0.53	1.0000 
	-7	-8	-19	5196	559	5684	-2.03	1.57	1.0000 
	-8	-8	19	3913	472	3752	-0.75	0.99	1.0000 
	8	-8	-19	3032	461	3053	0.03	0.97	1.0000 
	-9	-7	19	2177	374	2221	0.06	-1.7	1.0000 
	7	-9	-19	2197	398	2243	-0.21	0.8	1.0000 
	6	-9	-19	767	237	689	-0.87	-1.08	1.0000 
	9	6	-19	638	236	561	1.17	0.62	1.0000 
	9	5	-19	132	154	174	-1.12	0.31	1.0000 
	5	-9	-19	25	117	62	1.6	-1.47	1.0000 
	4	-9	-19	893	249	749	1.82	-0.76	1.0000 
	9	4	-19	1143	304	969	-1.71	0.81	1.0000 
	3	-9	-19	2327	379	2381	0.44	-0.52	1.0000 
	9	3	-19	1820	382	1934	-1.01	-1.09	1.0000 
	9	2	-19	2502	398	2498	-0.15	0.88	1.0000 
	2	-9	-19	1617	320	1594	0.13	-0.5	1.0000 
	1	-9	-19	1290	287	1178	-0.95	-1.8	1.0000 
	9	1	-19	1401	255	1330	1.16	2.9	1.0000 
	9	1	-19	1015	252	951	1.16	2.9	1.0000 
	9	-1	-19	1587	294	1463	-0.96	-1.71	1.0000 
	-1	-9	19	1572	248	1493	1.29	-3.25	1.0000 
	9	-1	-19	1693	306	1565	-0.96	-1.71	1.0000 
	-1	-9	-19	1029	275	949	1.35	2.95	1.0000 
	-2	-9	-19	1891	311	1864	-0.29	0.53	1.0000 
	-2	-9	-19	2248	366	2218	-0.29	0.53	1.0000 
	-2	-9	19	2139	314	2122	-0.23	-0.69	1.0000 
	9	-2	-19	2266	369	2236	0.12	-0.7	1.0000 
	9	-2	-19	2254	342	2224	0.12	-0.7	1.0000 
	-3	-9	-19	1622	341	1721	-0.96	-1.34	1.0000 
	-3	-9	-19	2390	337	2510	-0.96	-1.34	1.0000 
	9	-3	-19	2253	378	2350	0.68	0.02	1.0000 
	-3	-9	19	2082	336	2206	-1.06	1.49	1.0000 
	9	-4	-19	1088	242	918	1.92	-0.65	1.0000 
	-4	-9	-19	1327	304	1155	-1.52	1.16	1.0000 
	-4	-9	-19	1033	170	882	-1.52	1.16	1.0000 
	-4	-9	19	919	235	789	-1.46	-0.28	1.0000 
	-5	-9	-19	106	148	150	-1.15	0.93	1.0000 
	9	-5	-19	34	117	81	1.52	-1.92	1.0000 
	-5	-9	-19	90	69	130	-1.15	0.93	1.0000 
	-5	-9	19	153	150	206	-1.3	0.31	1.0000 
	-6	-9	19	895	225	787	1.4	-0.84	1.0000 
	9	-6	-19	606	188	538	-0.84	-1.27	1.0000 
	-6	-9	-19	526	207	430	1.84	1.73	1.0000 
	-7	-9	-19	2565	414	2634	0.23	1.57	1.0000 
	9	-7	-19	1898	375	1938	-0.19	0.82	1.0000 
	-7	-9	19	2380	404	2448	0.24	-1.57	1.0000 
	6	-10	-19	75	144	162	-2.66	-0.66	1.0000 
	10	6	-19	1	124	34	2.96	-1.3	1.0000 
	10	5	-19	3	130	-10	0.29	-1.13	1.0000 
	5	-10	-19	15	104	-31	0.38	-2.52	1.0000 
	4	-10	-19	168	136	298	2.23	-2.33	1.0000 
	10	4	-19	105	164	169	-1.5	1.31	1.0000 
	3	-10	-19	4	94	-93	1.25	-0.49	1.0000 
	10	3	-19	8	126	37	-1.75	1.27	1.0000 
	2	-10	-19	9	99	-10	-1.63	1.22	1.0000 
	10	2	-19	54	115	69	0.41	0.9	1.0000 
	10	1	-19	88	150	160	2.19	-0.47	1.0000 
	10	1	-19	32	70	80	2.19	-0.47	1.0000 
	1	-10	-19	58	131	135	-2.47	1.32	1.0000 
	10	-1	-19	81	128	175	-2.46	1.74	1.0000 
	10	-1	-19	20	72	-122	-2.46	1.74	1.0000 
	-1	-10	-19	171	144	287	2.59	-0.25	1.0000 
	10	-1	19	120	158	228	-2.43	-1.62	1.0000 
	-2	-10	19	4	104	-55	0.86	-0.99	1.0000 
	-2	-10	-19	4	84	9	0.68	1.04	1.0000 
	-2	-10	-19	79	138	104	0.68	1.04	1.0000 
	10	-2	19	116	127	174	-1.42	-1.41	1.0000 
	10	-2	-19	9	82	-106	-1.68	1.12	1.0000 
	-3	-10	19	28	131	72	-1.58	-1.45	1.0000 
	-3	-10	-19	11	72	-19	-1.84	1.22	1.0000 
	10	-3	-19	4	73	-144	1.26	-0.64	1.0000 
	-3	-10	-19	11	116	-168	-1.84	1.22	1.0000 
	-4	-10	-19	27	109	62	-1.31	1.68	1.0000 
	-4	-10	-19	111	157	177	-1.31	1.68	1.0000 
	-4	-10	19	192	141	277	-1.53	-1.31	1.0000 
	10	-4	-19	22	80	-119	2.33	-2.1	1.0000 
	-5	-10	-19	29	71	37	0.4	-0.37	1.0000 
	-5	-10	-19	42	147	52	0.4	-0.37	1.0000 
	10	-5	-19	334	157	491	0.58	-2.62	1.0000 
	-5	-10	19	6	113	-135	-0.07	1.61	1.0000 
	-6	-10	-19	46	135	129	2.85	-1.07	1.0000 
	-6	-10	19	179	156	325	2.53	1.87	1.0000 
	5	-11	-19	192	131	147	1.27	-1	1.0000 
	4	-11	-19	1093	277	1219	1.31	-1.36	1.0000 
	11	4	-19	730	275	871	-1.5	1.39	1.0000 
	3	-11	-19	2317	383	2201	0.9	-0.76	1.0000 
	11	3	-19	2616	463	2607	0.01	0.95	1.0000 
	2	-11	-19	1644	323	1592	-0.47	0.34	1.0000 
	11	2	-19	1577	347	1497	0.6	-0.89	1.0000 
	11	1	-19	816	197	796	-0.23	-2.86	1.0000 
	11	1	-19	812	218	792	-0.23	-2.86	1.0000 
	1	-11	-19	239	178	274	-0.31	2.52	1.0000 
	11	-1	-19	461	198	519	-0.35	2.61	1.0000 
	11	-1	-19	704	211	778	-0.35	2.61	1.0000 
	11	-1	19	553	189	614	-0.35	-2.47	1.0000 
	-1	-11	-19	560	221	536	-0.3	-3.03	1.0000 
	-1	-11	-19	346	135	323	-0.3	-3.03	1.0000 
	-2	-11	19	2224	323	2101	0.81	0.84	1.0000 
	-2	-11	-19	1709	306	1610	0.77	-0.45	1.0000 
	11	-2	19	1949	383	1911	-0.34	-0.43	1.0000 
	11	-2	-19	2033	354	1963	-0.57	0.41	1.0000 
	11	-2	-19	1890	352	1823	-0.57	0.41	1.0000 
	-2	-11	-19	2069	350	1960	0.77	-0.45	1.0000 
	11	-3	-19	2046	357	1969	0.7	-1.1	1.0000 
	11	-3	19	2399	436	2286	0.84	0.49	1.0000 
	-3	-11	-19	2798	383	2792	0.05	1.18	1.0000 
	-3	-11	19	2132	334	2148	0.18	-0.77	1.0000 
	-4	-11	19	985	264	1147	-1.47	-1.55	1.0000 
	-4	-11	-19	1094	199	1266	-1.52	1.32	1.0000 
	-5	-11	19	10	113	-6	-1.15	-1.74	1.0000 
	-5	-11	-19	212	110	180	-0.96	1.47	1.0000 
	3	-12	-19	4463	488	4701	1.21	-0.24	1.0000 
	2	-12	-19	5215	494	4987	1.04	0.25	1.0000 
	12	1	-19	1452	325	1466	0.04	-1.15	1.0000 
	12	-1	-19	1333	298	1413	0.72	-0.03	1.0000 
	12	-1	19	1655	362	1727	0.61	-0.18	1.0000 
	12	-1	-19	1027	285	1097	0.72	-0.03	1.0000 
	12	-2	-19	4034	507	3831	1.05	0.35	1.0000 
	12	-2	19	5141	530	4918	1.03	-0.26	1.0000 
	-3	-12	19	5061	478	5400	-1.52	-0.42	1.0000 
	0	0	-20	554	196	749	2.81	-0.56	1.0000 
	-1	0	-20	2361	300	2297	0.56	-0.98	1.0000 
	0	1	-20	2916	296	2857	0.48	-0.95	1.0000 
	1	0	-20	2095	284	2051	0.47	-1.21	1.0000 
	0	-1	-20	2991	344	2930	0.53	-1.26	1.0000 
	-1	1	-20	3856	361	4003	0.72	0.87	1.0000 
	1	-1	-20	4112	386	4254	0.69	0.57	1.0000 
	1	1	-20	4421	384	4625	1.08	-1.25	1.0000 
	-1	-1	-20	3917	380	4088	0.97	-1.37	1.0000 
	-2	-1	-20	1315	246	1246	0.65	-0.1	1.0000 
	-1	2	-20	1543	224	1441	0.86	0.7	1.0000 
	2	1	-20	1978	256	1892	0.66	-0.18	1.0000 
	1	-2	-20	1531	265	1418	0.96	0.64	1.0000 
	2	0	-20	1006	203	880	-1.34	-0.55	1.0000 
	0	-2	-20	1194	241	1053	-1.38	-0.57	1.0000 
	0	2	-20	933	183	815	-1.31	-0.44	1.0000 
	-2	0	-20	1025	206	895	-1.38	-0.46	1.0000 
	-2	1	-20	2013	271	1890	0.9	0.86	1.0000 
	1	2	-20	1602	230	1514	0.75	-0.16	1.0000 
	2	-1	-20	1335	239	1233	0.93	0.54	1.0000 
	-1	-2	-20	1219	248	1166	0.51	-0.06	1.0000 
	-2	-2	-20	2707	348	2768	0.39	-0.78	1.0000 
	2	2	-20	2903	290	2971	0.42	-1.09	1.0000 
	2	-2	-20	2263	318	2341	0.5	1.36	1.0000 
	-2	2	-20	2074	278	2156	0.55	1.41	1.0000 
	3	2	-20	112	96	107	0.42	-2.52	1.0000 
	2	-3	-20	66	131	50	0.71	-0.87	1.0000 
	-3	-2	-20	26	122	15	0.28	-2.84	1.0000 
	-2	3	-20	267	105	230	0.8	-0.77	1.0000 
	-3	-1	-20	1144	257	1188	-0.36	-1.08	1.0000 
	3	1	-20	1250	218	1276	-0.2	-0.73	1.0000 
	-1	3	-20	928	193	945	-0.15	-0.53	1.0000 
	1	-3	-20	1196	254	1209	-0.1	-0.44	1.0000 
	0	3	-20	1014	175	854	-1.81	0.75	1.0000 
	-3	0	-20	1262	234	1083	-1.83	0.85	1.0000 
	3	0	-20	934	194	786	-1.77	0.88	1.0000 
	0	-3	-20	1105	243	949	-1.73	1.05	1.0000 
	-1	-3	-20	1076	251	1112	-0.31	-0.84	1.0000 
	-3	1	-20	1299	237	1316	-0.15	-0.1	1.0000 
	3	-1	-20	1270	239	1279	-0.04	-0.78	1.0000 
	1	3	-20	983	190	1005	-0.18	-0.9	1.0000 
	-3	2	-20	367	133	325	0.76	-0.58	1.0000 
	-2	-3	-20	44	124	39	0.2	-2.72	1.0000 
	2	3	-20	153	102	150	0.42	-2.6	1.0000 
	3	-2	-20	139	122	113	0.78	-0.97	1.0000 
	3	3	-20	111	106	179	1.88	0.41	1.0000 
	-3	3	-20	217	129	294	1.61	-0.86	1.0000 
	3	-3	-20	31	126	61	1.5	-0.55	1.0000 
	-3	-3	-20	164	158	242	1.81	0.47	1.0000 
	-4	-3	-20	797	205	506	3.86	1.67	1.0000 
	3	-4	-20	254	130	115	3.59	-0.82	1.0000 
	2	-4	-20	4	129	42	3.65	-0.29	1.0000 
	-4	-2	-20	42	140	118	3.02	-0.94	1.0000 
	-2	4	-20	4	84	45	3.65	-0.68	1.0000 
	4	2	-20	47	82	127	3.15	-0.48	1.0000 
	1	-4	-20	2175	319	2052	-0.94	0.43	1.0000 
	4	1	-20	1953	254	1850	-0.71	-1.07	1.0000 
	-4	-1	-20	2098	308	1940	-1.1	-0.99	1.0000 
	-4	0	-20	1402	286	1638	-1.95	-0.58	1.0000 
	4	0	-20	1554	259	1789	-1.79	-0.92	1.0000 
	0	-4	-20	846	259	1028	-1.93	-0.51	1.0000 
	4	-1	-20	1756	254	1645	-0.9	0	1.0000 
	-4	1	-20	1889	280	1776	-0.91	0.25	1.0000 
	-1	-4	-20	1738	303	1616	-0.92	-0.99	1.0000 
	4	-1	-20	2255	294	2129	-0.9	0	1.0000 
	-2	-4	-20	22	149	-35	3.03	-0.7	1.0000 
	-4	2	-20	30	94	-30	3.61	-0.35	1.0000 
	4	-2	-20	27	124	107	3.69	-0.52	1.0000 
	-3	-4	-20	439	187	235	3.78	1.84	1.0000 
	4	-3	-20	311	123	150	3.7	-0.67	1.0000 
	-4	-4	-20	1410	303	1266	-1.61	1.67	1.0000 
	4	-4	-20	1567	291	1413	-1.35	0.04	1.0000 
	4	-5	-20	4668	470	5053	-1.78	-0.82	1.0000 
	-5	-4	-20	3731	482	4207	-2.45	-1	1.0000 
	3	-5	-20	1876	340	2088	1.58	0.28	1.0000 
	-5	-3	-20	1785	335	1969	1.39	0.46	1.0000 
	2	-5	-20	4	124	32	2.06	2.91	1.0000 
	5	2	-20	26	117	99	2.66	2.75	1.0000 
	-5	-2	-20	50	140	145	2.63	2.78	1.0000 
	5	2	-20	41	70	128	2.66	2.75	1.0000 
	5	1	-20	3226	375	3191	0.26	-0.48	1.0000 
	1	-5	-20	1999	336	2003	-0.1	0.82	1.0000 
	5	1	-20	2492	307	2461	0.26	-0.48	1.0000 
	-5	-1	-20	2968	370	2934	0.22	-0.1	1.0000 
	-5	0	-20	3291	377	3231	-0.11	-3.82	1.0000 
	5	0	-20	3440	349	3393	-0.03	-4	1.0000 
	5	0	-20	2846	338	2800	-0.03	-4	1.0000 
	0	-5	-20	2889	389	2844	-0.05	-3.17	1.0000 
	5	-1	-20	2777	334	2792	-0.14	0.55	1.0000 
	-1	-5	-20	2921	385	2895	0.16	-0.04	1.0000 
	5	-1	-20	2652	347	2667	-0.14	0.55	1.0000 
	-5	1	-20	2780	347	2821	-0.28	0.29	1.0000 
	5	-2	-20	31	118	102	2	2.86	1.0000 
	-2	-5	-20	8	161	44	2.58	2.37	1.0000 
	5	-3	-20	1970	347	2202	1.69	0.06	1.0000 
	-3	-5	-20	1844	345	2019	1.3	0.68	1.0000 
	-4	-5	-20	5056	545	5625	-2.56	-0.59	1.0000 
	5	-4	-20	5732	533	6137	-1.68	-0.98	1.0000 
	5	-5	-20	6921	577	6697	-0.82	-1.47	1.0000 
	-5	-5	-20	6945	588	6655	-1.08	-1.77	1.0000 
	5	-6	-20	2855	405	2620	1.66	-1.39	1.0000 
	-6	-5	-20	2895	406	2743	1.2	-2.12	1.0000 
	-6	-4	-20	2384	376	2305	-0.52	-0.33	1.0000 
	4	-6	-20	2188	366	2172	-0.05	-0.96	1.0000 
	3	-6	-20	366	215	515	-2.41	1.04	1.0000 
	6	3	-20	414	228	574	-2.45	1.23	1.0000 
	-6	-3	-20	429	234	584	-2.33	1.03	1.0000 
	-6	-2	-20	31	141	54	-1.38	1.57	1.0000 
	2	-6	-20	15	127	-84	-1.97	1.68	1.0000 
	6	2	-20	59	142	92	-1.34	1.62	1.0000 
	6	2	-20	41	75	68	-1.34	1.62	1.0000 
	-6	-1	-20	1119	283	1251	1.37	-0.83	1.0000 
	6	1	-20	1032	264	1157	1.34	-0.66	1.0000 
	6	1	-20	1186	241	1320	1.34	-0.66	1.0000 
	1	-6	-20	820	270	898	0.94	-0.37	1.0000 
	6	0	-20	1009	224	762	3.28	-2.44	1.0000 
	0	-6	-20	1493	293	1195	3.22	-2.23	1.0000 
	6	0	-20	1274	218	997	3.28	-2.44	1.0000 
	6	-1	-20	983	240	1073	1	-0.54	1.0000 
	-1	-6	-20	719	257	818	1.27	-0.62	1.0000 
	6	-1	-20	1278	265	1380	1	-0.54	1.0000 
	-1	-6	20	688	202	794	1.4	0.92	1.0000 
	-2	-6	20	153	145	205	-1.3	-1.49	1.0000 
	6	-2	-20	15	100	-58	-2.06	1.53	1.0000 
	-2	-6	-20	12	146	25	-1.37	1.59	1.0000 
	6	-3	-20	727	254	935	-2.43	0.68	1.0000 
	-3	-6	-20	791	286	999	-2.34	1.36	1.0000 
	-3	-6	20	332	185	477	-2.44	-0.76	1.0000 
	-4	-6	-20	2136	373	2048	-0.64	0.02	1.0000 
	6	-4	-20	1937	340	1925	-0.02	-1.15	1.0000 
	-4	-6	20	2233	328	2129	-0.68	0.88	1.0000 
	-5	-6	20	2864	373	2726	1.06	1.66	1.0000 
	6	-5	-20	3028	419	2796	1.6	-1.47	1.0000 
	-5	-6	-20	3114	424	2983	1.02	-1.96	1.0000 
	6	-6	-20	1321	342	1465	1.3	-0.06	1.0000 
	-6	-6	20	1802	339	1965	1.29	0.38	1.0000 
	-6	-6	-20	2534	411	2762	1.58	-1.87	1.0000 
	-7	-6	-20	406	206	397	0.1	1.22	1.0000 
	6	-7	-20	628	229	637	-0.16	1.26	1.0000 
	5	-7	-20	383	201	428	0.82	-1.12	1.0000 
	-7	-5	-20	631	250	701	0.97	-1.14	1.0000 
	7	4	-20	993	259	816	1.99	-0.27	1.0000 
	-7	-4	-20	826	253	662	2.07	-0.67	1.0000 
	4	-7	-20	1063	259	921	1.48	0.71	1.0000 
	3	-7	-20	757	229	656	-1.45	1.52	1.0000 
	7	3	-20	938	269	817	-1.36	-0.45	1.0000 
	2	-7	-20	179	171	354	-3.45	-1.84	1.0000 
	7	2	-20	75	104	230	-4.33	-1.26	1.0000 
	7	2	-20	40	154	165	-4.33	-1.26	1.0000 
	7	1	-20	3	84	-47	-0.95	-0.51	1.0000 
	7	1	-20	16	113	32	-0.95	-0.51	1.0000 
	1	-7	-20	28	163	46	-0.66	-0.84	1.0000 
	7	0	-20	19	91	-69	2.59	1.38	1.0000 
	0	-7	-20	14	146	-72	2.15	1.26	1.0000 
	7	0	-20	5	116	34	2.59	1.38	1.0000 
	7	-1	-20	101	127	134	-0.52	-1.07	1.0000 
	-1	-7	-20	59	162	86	-1.02	-0.29	1.0000 
	7	-1	-20	3	77	-144	-0.52	-1.07	1.0000 
	-1	-7	20	132	131	174	-0.87	0.8	1.0000 
	7	-2	-20	110	151	260	-3.56	-2.02	1.0000 
	-2	-7	-20	160	217	357	-4.17	-0.5	1.0000 
	-2	-7	20	109	158	291	-4.34	1.61	1.0000 
	-3	-7	20	408	173	332	-1.32	0.67	1.0000 
	-3	-7	-20	358	196	291	-1.23	-0.27	1.0000 
	7	-3	-20	676	201	577	-1.52	1.58	1.0000 
	7	-4	-20	690	202	571	1.55	0.56	1.0000 
	-4	-7	-20	1034	170	852	2.02	-0.44	1.0000 
	-4	-7	20	1040	241	867	1.92	0.55	1.0000 
	-4	-7	-20	1144	295	952	2.02	-0.44	1.0000 
	-5	-7	20	595	231	638	0.6	0.49	1.0000 
	-5	-7	-20	1151	312	1211	0.62	-0.66	1.0000 
	7	-5	-20	954	284	1026	0.82	-1.39	1.0000 
	7	-6	-20	435	198	442	-0.15	1.27	1.0000 
	-6	-7	20	498	196	500	-0.05	-1.73	1.0000 
	-6	-7	-20	457	231	435	0.3	0.87	1.0000 
	-7	-7	-20	23	159	83	2.08	3.68	1.0000 
	7	-7	-20	31	141	89	2.06	2.56	1.0000 
	-7	-7	20	268	180	432	1.91	-3.08	1.0000 
	-8	-7	20	190	179	337	3.07	0.14	1.0000 
	7	-8	-20	73	154	171	2.98	-0.74	1.0000 
	6	-8	-20	67	130	111	-1.62	1.58	1.0000 
	8	5	-20	9	108	-162	-1.72	0.93	1.0000 
	5	-8	-20	14	130	-98	-2.32	0.86	1.0000 
	4	-8	-20	51	144	36	0.72	0.67	1.0000 
	8	4	-20	11	144	-5	1.36	-1.69	1.0000 
	3	-8	-20	148	143	191	1.1	-0.39	1.0000 
	8	3	-20	110	161	158	0.39	-2.54	1.0000 
	8	2	-20	213	145	225	-0.24	-0.76	1.0000 
	2	-8	-20	24	122	21	0.25	-2.93	1.0000 
	8	1	-20	28	88	12	-1.14	0.9	1.0000 
	8	1	-20	116	138	81	-1.14	0.9	1.0000 
	1	-8	-20	3	136	-23	-1.15	-0.25	1.0000 
	8	0	-20	68	93	93	-2.63	2.37	1.0000 
	8	0	-20	45	101	59	-2.63	2.37	1.0000 
	0	-8	-20	37	158	54	-3.04	2.57	1.0000 
	8	-1	-20	40	110	22	-1.14	-0.37	1.0000 
	-1	-8	20	40	140	23	-0.99	-0.54	1.0000 
	-1	-8	-20	185	162	139	-1.21	1.14	1.0000 
	8	-1	-20	59	94	37	-1.14	-0.37	1.0000 
	8	-2	-20	20	110	-16	0.11	-3	1.0000 
	-2	-8	-20	241	192	253	-0.23	-0.53	1.0000 
	-2	-8	20	240	171	261	-0.4	0.76	1.0000 
	-3	-8	-20	167	172	230	0.32	-2.66	1.0000 
	-3	-8	20	40	124	64	0.2	2.69	1.0000 
	-3	-8	-20	76	99	116	0.32	-2.66	1.0000 
	8	-3	-20	165	134	209	1.06	-0.55	1.0000 
	-4	-8	20	387	175	389	1.26	2.18	1.0000 
	8	-4	-20	166	99	134	0.85	0.3	1.0000 
	-4	-8	-20	215	161	202	1.47	-2.05	1.0000 
	-4	-8	-20	381	132	369	1.47	-2.05	1.0000 
	8	-5	-20	388	129	278	-2.26	0.66	1.0000 
	-5	-8	20	272	143	200	-1.7	-0.46	1.0000 
	-5	-8	-20	228	165	158	-1.9	0.71	1.0000 
	8	-6	-20	172	159	248	-1.69	1.83	1.0000 
	-6	-8	-20	386	224	488	-1.6	1.31	1.0000 
	-6	-8	20	112	167	172	-1.71	-1.46	1.0000 
	8	-7	-20	188	153	331	2.97	-0.51	1.0000 
	-7	-8	-20	6	126	69	3.76	0.87	1.0000 
	-7	-8	20	120	161	260	3.32	-0.95	1.0000 
	-8	-8	20	206	180	420	4.08	0.54	1.0000 
	8	-8	-20	72	111	183	3.25	-1.75	1.0000 
	7	-9	-20	127	165	258	1.1	-3.06	1.0000 
	6	-9	-20	319	180	375	0.93	0.62	1.0000 
	9	6	-20	528	245	616	1.29	-0.49	1.0000 
	9	5	-20	333	222	377	-0.94	0.94	1.0000 
	5	-9	-20	231	143	251	-0.79	3.22	1.0000 
	9	4	-20	725	233	563	-2.03	-1.14	1.0000 
	4	-9	-20	492	187	402	-1.42	-0.1	1.0000 
	3	-9	-20	16	91	-206	-1.01	-2.44	1.0000 
	9	3	-20	11	122	51	-1.86	-1.8	1.0000 
	2	-9	-20	239	160	214	0.69	-1.26	1.0000 
	9	2	-20	414	196	373	0.74	-0.57	1.0000 
	9	1	-20	1933	305	1968	0.17	0.9	1.0000 
	9	1	-20	2233	380	2271	0.17	0.9	1.0000 
	1	-9	-20	1400	313	1375	-0.3	0.7	1.0000 
	9	0	20	4658	473	5185	-2.58	-1.75	1.0000 
	9	0	-20	4888	517	5394	-2.43	1.84	1.0000 
	0	-9	-20	4530	500	5045	-2.55	1.59	1.0000 
	9	0	-20	3771	425	4216	-2.43	1.84	1.0000 
	-1	-9	-20	1437	310	1454	0.06	0.84	1.0000 
	9	-1	-20	2055	339	2039	-0.24	1.07	1.0000 
	9	-1	-20	1745	322	1730	-0.24	1.07	1.0000 
	-2	-9	-20	417	196	379	0.68	-0.55	1.0000 
	9	-2	-20	234	120	209	0.72	-1.36	1.0000 
	-2	-9	20	217	145	190	0.71	0.77	1.0000 
	9	-3	-20	37	105	103	-0.99	-2.57	1.0000 
	-3	-9	20	143	147	255	-1.93	1.84	1.0000 
	-3	-9	-20	27	90	80	-1.77	-1.75	1.0000 
	-3	-9	-20	47	143	112	-1.77	-1.75	1.0000 
	9	-4	-20	312	155	247	-1.33	0.11	1.0000 
	-4	-9	-20	537	131	412	-1.81	-1.24	1.0000 
	-4	-9	-20	588	227	457	-1.81	-1.24	1.0000 
	-4	-9	20	423	138	311	-1.88	0.66	1.0000 
	9	-5	-20	359	175	384	-0.68	3.03	1.0000 
	-5	-9	20	681	221	747	-0.94	-0.8	1.0000 
	-5	-9	-20	648	262	723	-1.08	0.73	1.0000 
	9	-6	-20	686	223	743	0.69	0.25	1.0000 
	-6	-9	-20	635	256	724	1.19	-0.41	1.0000 
	-6	-9	20	681	238	771	1.21	0.97	1.0000 
	-7	-9	20	23	151	-61	2.21	2.33	1.0000 
	-7	-9	-20	167	209	323	2.66	-2.29	1.0000 
	6	-10	-20	1794	340	1734	0.53	-0.49	1.0000 
	5	-10	-20	692	229	904	2.21	1.84	1.0000 
	10	5	-20	756	302	915	1.84	0.13	1.0000 
	4	-10	-20	525	202	544	-0.44	1.37	1.0000 
	10	4	-20	318	209	319	-0.1	0.46	1.0000 
	3	-10	-20	53	121	108	-2.18	-0.72	1.0000 
	10	3	-20	7	94	-217	-1.67	-0.48	1.0000 
	2	-10	-20	881	237	770	-1.26	-0.92	1.0000 
	10	2	-20	772	211	634	-1.73	-1.92	1.0000 
	10	1	-20	1932	314	1972	-0.36	0.54	1.0000 
	1	-10	-20	1390	325	1410	-0.23	0.45	1.0000 
	10	1	-20	2189	382	2232	-0.36	0.54	1.0000 
	10	0	-20	4225	428	4399	0.68	2.2	1.0000 
	0	-10	-20	5164	518	5379	0.82	1.85	1.0000 
	10	0	-20	4455	491	4634	0.68	2.2	1.0000 
	10	-1	20	2235	373	2247	-0.14	-0.6	1.0000 
	10	-1	-20	1293	294	1313	-0.26	0.8	1.0000 
	10	-1	-20	1474	305	1495	-0.26	0.8	1.0000 
	-1	-10	-20	1641	343	1682	-0.38	0.44	1.0000 
	10	-2	20	853	230	760	-1.06	0.69	1.0000 
	-2	-10	20	454	141	352	-1.66	1.91	1.0000 
	10	-2	-20	569	166	481	-1.25	-0.91	1.0000 
	-2	-10	-20	516	158	390	-1.95	-1.82	1.0000 
	-2	-10	-20	723	230	574	-1.95	-1.82	1.0000 
	-3	-10	-20	3	99	1	-1.74	-0.41	1.0000 
	-3	-10	-20	114	176	174	-1.74	-0.41	1.0000 
	-3	-10	20	6	105	-23	-1.62	0.23	1.0000 
	10	-3	-20	11	75	-80	-2.08	-0.66	1.0000 
	10	-4	-20	278	160	282	-0.31	1.62	1.0000 
	-4	-10	-20	652	221	653	0	-0.07	1.0000 
	-4	-10	20	213	120	207	-0.01	-0.87	1.0000 
	-4	-10	-20	456	138	457	0	-0.07	1.0000 
	10	-5	-20	827	269	1052	2.21	1.57	1.0000 
	-5	-10	20	1005	277	1185	1.84	0.06	1.0000 
	-5	-10	-20	795	272	963	1.98	-0.49	1.0000 
	-6	-10	-20	2094	360	2008	0.68	-0.4	1.0000 
	-7	-10	-20	261	161	194	-1.43	-1.26	1.0000 
	4	-11	-20	225	150	227	-0.08	0.68	1.0000 
	11	3	-20	154	120	162	-0.21	1.27	1.0000 
	3	-11	-20	242	149	285	-0.9	0.08	1.0000 
	11	2	-20	1	114	-44	0.11	0.64	1.0000 
	2	-11	-20	191	184	221	-0.74	0.33	1.0000 
	11	1	-20	866	243	867	-0.08	0.52	1.0000 
	1	-11	-20	209	169	208	-0.1	0.42	1.0000 
	0	-11	-20	2260	364	2129	0.92	0.11	1.0000 
	11	0	-20	2315	350	2177	0.96	0.17	1.0000 
	11	0	-20	2434	412	2293	0.96	0.17	1.0000 
	11	-1	-20	961	254	952	-0.19	0.54	1.0000 
	11	-1	-20	410	136	404	-0.19	0.54	1.0000 
	11	-1	20	545	191	551	0.02	-0.39	1.0000 
	-1	-11	-20	1192	291	1196	-0.06	0.55	1.0000 
	-1	-11	-20	669	194	672	-0.06	0.55	1.0000 
	11	-2	20	216	135	244	-0.66	-0.83	1.0000 
	11	-2	-20	38	111	52	-0.76	0.57	1.0000 
	-2	-11	-20	302	131	292	0.13	0.54	1.0000 
	-2	-11	-20	185	159	177	0.13	0.54	1.0000 
	11	-3	20	192	156	227	-0.83	-0.33	1.0000 
	-3	-11	-20	440	128	464	-0.37	0.99	1.0000 
	-3	-11	20	252	137	265	-0.2	-1.45	1.0000 
	11	-3	-20	88	123	111	-0.78	-0.01	1.0000 
	-3	-11	-20	206	166	221	-0.37	0.99	1.0000 
	-4	-11	20	460	210	460	-0.02	-0.11	1.0000 
	-4	-11	-20	326	138	326	-0.04	0.19	1.0000 
	2	-12	-20	157	156	306	-1.29	3.05	1.0000 
	12	0	-20	398	136	422	0.39	-2.84	1.0000 
	12	0	-20	258	133	273	0.39	-2.84	1.0000 
	12	-1	20	255	156	299	-0.91	-0.08	1.0000 
	12	-1	-20	2	91	-146	-0.95	0.26	1.0000 
	-3	-12	20	194	150	293	1.21	-2.58	1.0000 
	1	1	-21	1741	254	1587	1.26	0.06	1.0000 
	-1	1	-21	1132	220	1062	-0.64	1.3	1.0000 
	1	-1	-21	2134	290	2022	-0.76	1.3	1.0000 
	-1	-1	-21	1559	263	1433	1.07	0.34	1.0000 
	-1	2	-21	2713	298	2982	-1.72	0.37	1.0000 
	1	-2	-21	2700	358	2967	-1.66	-0.17	1.0000 
	2	1	-21	2607	296	2829	1.53	1.37	1.0000 
	-2	-1	-21	2305	337	2507	1.49	1.53	1.0000 
	2	-1	-21	2367	336	2617	-1.7	0.24	1.0000 
	-1	-2	-21	2528	353	2720	1.38	1.88	1.0000 
	-2	1	-21	2462	329	2721	-1.71	0.05	1.0000 
	1	2	-21	2509	283	2728	1.52	1.06	1.0000 
	2	-2	-21	3678	385	3494	-1.07	0.24	1.0000 
	-2	2	-21	3633	324	3431	-1.19	0.29	1.0000 
	-2	-2	-21	3152	384	3032	0.83	0.61	1.0000 
	2	2	-21	3906	329	3763	0.89	0.67	1.0000 
	-2	3	-21	6782	452	6482	1.24	-0.03	1.0000 
	3	2	-21	7253	462	7050	-1	-1.57	1.0000 
	-3	-2	-21	6016	501	5826	-1.1	-2.08	1.0000 
	2	-3	-21	7174	531	6809	1.51	-0.47	1.0000 
	-1	3	-21	3491	322	3612	0.67	0.1	1.0000 
	-3	-1	-21	3819	403	4035	-1.17	-0.24	1.0000 
	1	-3	-21	3408	410	3570	0.91	0.12	1.0000 
	3	1	-21	3610	340	3822	-1.21	-0.59	1.0000 
	3	-1	-21	3424	356	3591	0.93	0.16	1.0000 
	1	3	-21	3907	335	4127	-1.17	-0.12	1.0000 
	-3	1	-21	3506	362	3632	0.69	0.25	1.0000 
	-1	-3	-21	3576	397	3813	-1.34	-0.59	1.0000 
	2	3	-21	6270	427	6077	-1.06	-1.81	1.0000 
	-2	-3	-21	6484	517	6249	-1.21	-1.75	1.0000 
	3	-2	-21	6802	500	6439	1.52	-0.18	1.0000 
	-3	2	-21	6918	474	6596	1.34	-0.27	1.0000 
	-3	-3	-21	11768	710	10861	2.93	-0.9	1.0000 
	3	-3	-21	9924	654	9317	-2.09	-0.26	1.0000 
	-3	3	-21	11448	626	10813	-2.02	-0.02	1.0000 
	-4	-3	-21	3202	415	3305	0.52	0.96	1.0000 
	3	-4	-21	3547	420	3615	-0.37	0.15	1.0000 
	-4	-2	-21	1648	300	1650	0.01	-0.24	1.0000 
	2	-4	-21	1269	275	1290	0.21	0.07	1.0000 
	4	2	-21	1556	232	1558	0.08	-0.72	1.0000 
	4	1	-21	875	212	1015	1.6	-1.19	1.0000 
	-4	-1	-21	789	242	902	1.38	-1.17	1.0000 
	1	-4	-21	995	265	1130	-1.32	0.61	1.0000 
	4	-1	-21	794	225	917	-1.37	0.5	1.0000 
	-4	1	-21	1159	254	1304	-1.36	0.33	1.0000 
	-1	-4	-21	1135	278	1267	1.36	-1.65	1.0000 
	4	-2	-21	1417	269	1436	0.18	0.08	1.0000 
	-4	2	-21	1303	257	1308	0.1	0.41	1.0000 
	-2	-4	-21	1684	315	1707	-0.14	-0.33	1.0000 
	-3	-4	-21	3182	416	3274	0.44	1.08	1.0000 
	4	-3	-21	2946	383	3013	-0.4	0.11	1.0000 
	-4	-4	-21	758	272	835	-0.87	-0.4	1.0000 
	4	-4	-21	802	236	864	0.71	-0.08	1.0000 
	-5	-4	-21	252	214	359	-2.02	-0.74	1.0000 
	4	-5	-21	145	145	238	2.27	-0.18	1.0000 
	-5	-3	-21	8	124	-62	-1.53	1.01	1.0000 
	3	-5	-21	144	135	108	1.07	0.36	1.0000 
	-5	-2	-21	424	185	368	0.97	0.78	1.0000 
	5	2	-21	506	146	437	1.08	0.44	1.0000 
	2	-5	-21	7	137	-3	-1.65	0.45	1.0000 
	5	1	-21	84	132	152	2.05	-0.95	1.0000 
	-5	-1	-21	203	185	309	2.11	-1.26	1.0000 
	1	-5	-21	141	180	222	-2.01	0.05	1.0000 
	5	1	-21	70	90	133	2.05	-0.95	1.0000 
	-1	-5	-21	259	189	376	2.14	-0.93	1.0000 
	5	-1	-21	197	130	291	-2.03	-0.08	1.0000 
	-5	1	-21	169	154	258	-2.04	0.09	1.0000 
	-2	-5	-21	142	191	108	1.02	0.54	1.0000 
	5	-2	-21	262	137	193	-1.53	0.17	1.0000 
	5	-3	-21	164	137	118	1.29	0.21	1.0000 
	-3	-5	-21	5	146	-102	-1.38	0.41	1.0000 
	-4	-5	-21	371	210	487	-1.83	-0.77	1.0000 
	5	-4	-21	257	167	380	2.31	-0.12	1.0000 
	5	-5	-21	635	203	521	1.58	-0.04	1.0000 
	-5	-5	-21	946	274	831	-1.29	0.36	1.0000 
	5	-6	-21	79	153	109	0.94	0.8	1.0000 
	-6	-5	-21	6	156	-57	-0.71	1.45	1.0000 
	-6	-4	-21	195	182	189	-0.1	-0.31	1.0000 
	4	-6	-21	34	140	35	-0.22	-0.81	1.0000 
	3	-6	-21	618	215	518	-1.46	0.27	1.0000 
	-6	-3	-21	871	234	827	0.42	-0.65	1.0000 
	6	2	-21	1236	281	1145	-0.97	0.62	1.0000 
	2	-6	-21	1309	304	1266	0.56	0.99	1.0000 
	-6	-2	-21	1581	313	1463	-1.08	0.48	1.0000 
	6	2	-21	1436	231	1338	-0.97	0.62	1.0000 
	6	1	-21	420	202	497	-1.14	-0.58	1.0000 
	1	-6	-21	801	271	940	1.58	0.05	1.0000 
	6	1	-21	839	213	946	-1.14	-0.58	1.0000 
	-6	-1	-21	543	212	626	-1.11	-0.36	1.0000 
	-1	-6	-21	439	219	500	-0.91	-0.38	1.0000 
	-1	-6	21	511	180	602	-1.26	0.36	1.0000 
	6	-1	-21	473	190	582	1.59	0.02	1.0000 
	6	-1	-21	579	224	698	1.59	0.02	1.0000 
	-2	-6	-21	1357	308	1264	-0.96	0.66	1.0000 
	6	-2	-21	1238	276	1183	0.7	1.06	1.0000 
	-2	-6	21	1262	245	1163	-1.01	-0.45	1.0000 
	6	-3	-21	736	211	633	-1.36	0.2	1.0000 
	-3	-6	21	507	183	457	0.66	0.81	1.0000 
	-3	-6	-21	783	253	731	0.57	-0.44	1.0000 
	-4	-6	-21	198	191	196	0.08	-0.76	1.0000 
	6	-4	-21	59	135	60	-0.22	-1	1.0000 
	-4	-6	21	342	176	336	-0.04	0.4	1.0000 
	6	-5	-21	97	129	131	0.94	0.9	1.0000 
	-5	-6	-21	202	179	238	-0.71	0.77	1.0000 
	-6	-6	-21	523	250	569	-0.71	1.02	1.0000 
	6	-6	-21	728	283	842	1.4	2.13	1.0000 
	6	-7	-21	1843	333	1623	1.67	1.96	1.0000 
	-7	-6	-21	1442	328	1322	-1	1.15	1.0000 
	-7	-5	-21	51	166	104	1.28	1.67	1.0000 
	5	-7	-21	5	123	52	-0.77	3.52	1.0000 
	4	-7	-21	716	213	555	-2.16	0.06	1.0000 
	7	4	-21	850	246	756	1.23	0.66	1.0000 
	-7	-4	-21	1108	293	1016	1.15	1.03	1.0000 
	3	-7	-21	2708	416	2788	-0.54	0.2	1.0000 
	7	3	-21	4088	489	4115	-0.15	-1.93	1.0000 
	7	2	-21	4171	503	4458	-1.27	-1.66	1.0000 
	2	-7	-21	3902	489	4192	1.6	0.78	1.0000 
	7	1	-21	2035	292	1769	-2.14	0.86	1.0000 
	1	-7	-21	1818	338	1542	2.16	-1.3	1.0000 
	7	1	-21	2522	359	2225	-2.14	0.86	1.0000 
	-1	-7	-21	1485	317	1261	-2.14	1.08	1.0000 
	7	-1	-21	2058	308	1770	2.11	-1.27	1.0000 
	-1	-7	21	2102	270	1826	-2.21	-1.05	1.0000 
	7	-1	-21	1510	271	1265	2.11	-1.27	1.0000 
	-2	-7	21	3962	395	4255	-1.31	1.86	1.0000 
	-2	-7	-21	4502	496	4787	-1.25	-1.3	1.0000 
	7	-2	-21	4622	471	4950	1.67	0.87	1.0000 
	7	-3	-21	3093	424	3163	-0.44	0.19	1.0000 
	-3	-7	-21	3258	437	3235	-0.35	-1.54	1.0000 
	-3	-7	21	3467	388	3499	-0.17	2.32	1.0000 
	7	-4	-21	1260	270	1046	-2.11	-0.09	1.0000 
	-4	-7	-21	892	282	798	1.14	0.31	1.0000 
	-4	-7	21	1196	267	1098	1.25	-1.35	1.0000 
	7	-5	-21	77	166	198	-0.73	3.57	1.0000 
	-5	-7	-21	35	164	67	1.47	0.27	1.0000 
	-5	-7	21	1	137	18	1.42	-1.67	1.0000 
	7	-6	-21	1816	341	1587	1.76	2.06	1.0000 
	-6	-7	21	1613	306	1595	-0.2	0.5	1.0000 
	-6	-7	-21	1510	347	1487	-0.19	0.08	1.0000 
	7	-7	-21	3282	509	3575	1.84	-2.79	1.0000 
	-7	-7	-21	3069	478	3312	-1.47	-0.24	1.0000 
	-7	-7	21	3428	463	3756	-1.83	-0.09	1.0000 
	7	-8	-21	2140	434	2418	-1.52	-2.73	1.0000 
	6	-8	-21	746	250	664	-0.96	-0.67	1.0000 
	8	5	-21	1	122	-1	0.77	-0.17	1.0000 
	5	-8	-21	23	123	-4	-1.55	2.79	1.0000 
	8	4	-21	1281	326	1239	-0.86	2.56	1.0000 
	4	-8	-21	1320	326	1371	-0.1	2.09	1.0000 
	3	-8	-21	2822	453	3204	2.41	-0.71	1.0000 
	8	3	-21	2887	458	3251	-2.26	-0.44	1.0000 
	2	-8	-21	3841	489	3923	-0.29	-1.22	1.0000 
	8	2	-21	3221	465	3466	1.01	-2.75	1.0000 
	1	-8	-21	1612	317	1452	-1.29	-0.98	1.0000 
	8	1	-21	1855	290	1728	1.05	0.4	1.0000 
	8	1	-21	1660	325	1540	1.05	0.4	1.0000 
	8	-1	-21	1660	292	1506	-1.19	-1.4	1.0000 
	-1	-8	-21	1703	335	1597	0.95	0.55	1.0000 
	8	-1	-21	2170	338	1994	-1.19	-1.4	1.0000 
	8	-2	-21	3845	460	3947	-0.37	-1.34	1.0000 
	-2	-8	21	3569	365	3802	0.9	2.63	1.0000 
	-2	-8	-21	3453	473	3683	0.89	-2.68	1.0000 
	-3	-8	-21	2527	353	2863	-2.28	-0.95	1.0000 
	-3	-8	21	2993	397	3373	-2.33	0.54	1.0000 
	-3	-8	-21	3067	464	3436	-2.28	-0.95	1.0000 
	8	-3	-21	2552	413	2917	2.42	-0.71	1.0000 
	-4	-8	-21	1318	226	1260	-0.87	1.96	1.0000 
	-4	-8	-21	1484	328	1423	-0.87	1.96	1.0000 
	-4	-8	21	1030	229	991	-0.81	-2.32	1.0000 
	8	-4	-21	1067	260	1097	0.11	2.34	1.0000 
	8	-5	-21	170	120	177	-1.3	2.98	1.0000 
	-5	-8	-21	156	168	133	0.63	0.19	1.0000 
	-5	-8	21	264	173	233	0.67	0.17	1.0000 
	-6	-8	-21	555	229	486	0.94	-0.69	1.0000 
	-6	-8	21	897	213	818	0.92	-0.04	1.0000 
	8	-6	-21	903	242	820	-0.89	-0.45	1.0000 
	-7	-8	21	1908	370	2181	2.18	-1.63	1.0000 
	8	-7	-21	2498	454	2797	-1.53	-2.64	1.0000 
	-7	-8	-21	1316	353	1613	2.37	-1.72	1.0000 
	6	-9	-21	482	226	779	-3.6	-2.55	1.0000 
	5	-9	-21	42	99	-100	-0.62	-4.25	1.0000 
	9	5	-21	71	116	85	-0.23	1.01	1.0000 
	9	4	-21	86	154	148	-2.02	0.35	1.0000 
	4	-9	-21	180	152	258	1.52	-1.26	1.0000 
	3	-9	-21	369	173	293	1.36	0.33	1.0000 
	9	3	-21	520	221	452	-1.17	-0.5	1.0000 
	9	2	-21	1190	301	1123	0.67	-0.01	1.0000 
	2	-9	-21	866	258	851	-0.12	0.34	1.0000 
	9	1	-21	559	217	697	1.79	0.49	1.0000 
	1	-9	-21	519	230	651	-1.68	1	1.0000 
	9	1	-21	701	177	855	1.79	0.49	1.0000 
	9	-1	-21	411	176	513	-1.48	0.76	1.0000 
	9	-1	-21	196	108	268	-1.48	0.76	1.0000 
	-1	-9	-21	467	225	604	1.89	0.77	1.0000 
	-2	-9	21	453	168	412	0.64	-0.18	1.0000 
	-2	-9	-21	899	274	846	0.6	0.02	1.0000 
	9	-2	-21	1014	242	987	-0.21	0.65	1.0000 
	-3	-9	-21	244	85	203	-1.1	-0.72	1.0000 
	-3	-9	-21	929	289	850	-1.1	-0.72	1.0000 
	9	-3	-21	777	204	677	1.24	0.15	1.0000 
	-3	-9	21	698	204	629	-1.09	0.64	1.0000 
	-4	-9	-21	163	95	245	-1.95	-0.01	1.0000 
	9	-4	-21	377	169	496	1.69	-1.14	1.0000 
	-4	-9	-21	319	206	431	-1.95	-0.01	1.0000 
	-4	-9	21	440	197	580	-2.01	0.55	1.0000 
	-5	-9	21	99	116	116	-0.47	0.44	1.0000 
	9	-5	-21	73	97	169	-0.29	-3.83	1.0000 
	-5	-9	-21	110	139	121	-0.33	-0.24	1.0000 
	9	-6	-21	193	166	384	-3.53	-2.28	1.0000 
	-6	-9	21	175	170	302	2.81	-0.45	1.0000 
	-6	-9	-21	487	236	697	2.83	-0.69	1.0000 
	-7	-9	-21	416	208	218	3.86	-0.35	1.0000 
	5	-10	-21	55	124	240	-1.23	-5.4	1.0000 
	10	4	-21	7	116	-37	1.25	-1.26	1.0000 
	4	-10	-21	6	107	45	-1.1	-4.3	1.0000 
	10	3	-21	15	139	49	1.71	1.31	1.0000 
	3	-10	-21	27	130	71	-2.14	-0.02	1.0000 
	10	2	-21	42	135	138	-2.61	2.76	1.0000 
	2	-10	-21	14	108	73	2.47	2.53	1.0000 
	10	1	-21	108	135	252	-3.64	0.48	1.0000 
	1	-10	-21	86	154	224	3.58	1.67	1.0000 
	-1	-10	-21	50	129	156	-3.55	0.91	1.0000 
	10	-1	21	103	143	255	3.63	-1.77	1.0000 
	10	-1	-21	1	108	31	3.62	1.5	1.0000 
	10	-1	-21	73	101	203	3.62	1.5	1.0000 
	-2	-10	-21	35	122	-180	-2.59	2.95	1.0000 
	10	-2	-21	16	89	79	2.59	2.5	1.0000 
	-2	-10	-21	16	87	4	-2.59	2.95	1.0000 
	10	-3	-21	9	81	-123	-1.98	-0.12	1.0000 
	-3	-10	-21	10	106	-152	1.8	1.13	1.0000 
	-3	-10	-21	39	83	87	1.8	1.13	1.0000 
	-3	-10	21	86	140	152	1.7	-1.17	1.0000 
	10	-4	-21	42	94	-26	-1.17	-4.17	1.0000 
	-4	-10	21	273	184	390	1.14	2.25	1.0000 
	-4	-10	-21	159	175	245	1.36	-1.86	1.0000 
	-4	-10	-21	12	78	-91	1.36	-1.86	1.0000 
	-5	-10	21	185	177	319	2.37	1.64	1.0000 
	-5	-10	-21	130	146	258	2.64	-1.73	1.0000 
	-6	-10	-21	22	163	98	3.46	-0.44	1.0000 
	3	-11	-21	874	236	785	-0.94	-2.64	1.0000 
	11	2	-21	1060	271	862	-2.25	0.98	1.0000 
	2	-11	-21	1319	306	1179	1.47	1.22	1.0000 
	1	-11	-21	542	242	743	2.08	2.72	1.0000 
	11	1	-21	307	195	430	-2.16	-2.29	1.0000 
	11	-1	-21	241	169	383	2.21	2.73	1.0000 
	11	-1	-21	419	151	605	2.21	2.73	1.0000 
	-1	-11	-21	957	277	1158	-2	-2.22	1.0000 
	-1	-11	-21	387	135	514	-2	-2.22	1.0000 
	11	-2	-21	1617	276	1439	1.6	0.65	1.0000 
	-2	-11	-21	1232	264	1016	-2.27	1	1.0000 
	-2	-11	-21	1242	221	1025	-2.27	1	1.0000 
	11	-2	21	1402	330	1253	1.53	-1.26	1.0000 
	-3	-11	-21	1055	274	1082	0.36	3.44	1.0000 
	-3	-11	-21	1187	219	1217	0.36	3.44	1.0000 
	11	-3	21	1221	328	1144	-0.7	3.04	1.0000 
	-3	-11	21	882	226	919	0.31	-3.85	1.0000 
	-4	-11	-21	195	118	282	1.91	-0.07	1.0000 
	-4	-11	-21	610	230	758	1.91	-0.07	1.0000 
	-4	-11	21	435	199	551	1.76	0	1.0000 
	12	-1	-21	703	228	876	-2.08	0.06	1.0000 
	0	0	-22	9978	614	9445	1.85	-0.27	1.0000 
	0	-1	-22	7709	552	7352	-1.38	0.05	1.0000 
	-1	0	-22	8389	560	8017	-1.38	0.09	1.0000 
	0	1	-22	7925	527	7592	-1.29	0.25	1.0000 
	1	0	-22	9545	583	9143	-1.42	0.24	1.0000 
	-1	1	-22	6090	469	6359	-1.23	1.17	1.0000 
	1	1	-22	6624	479	6903	-1.1	-0.36	1.0000 
	1	-1	-22	5589	480	5848	-1.24	1.12	1.0000 
	-1	-1	-22	5524	486	5806	-1.19	-0.67	1.0000 
	-2	-1	-22	2421	335	2461	0.27	0.05	1.0000 
	-1	2	-22	2507	296	2485	-0.2	0.76	1.0000 
	1	-2	-22	2347	334	2334	-0.12	0.44	1.0000 
	2	1	-22	2186	298	2227	0.26	0.53	1.0000 
	0	-2	-22	2454	368	2838	-2.5	0.17	1.0000 
	-2	0	-22	3062	383	3499	-2.57	0.41	1.0000 
	2	0	-22	2986	373	3412	-2.54	0.37	1.0000 
	0	2	-22	3342	335	3780	-2.48	0.65	1.0000 
	-2	1	-22	2616	333	2597	-0.19	0.89	1.0000 
	1	2	-22	2375	291	2427	0.32	0.52	1.0000 
	-1	-2	-22	2499	349	2540	0.26	0.13	1.0000 
	2	-1	-22	2290	315	2272	-0.15	0.3	1.0000 
	-2	2	-22	2969	326	2702	1.68	1.88	1.0000 
	2	-2	-22	3376	369	3085	1.72	2.17	1.0000 
	2	2	-22	2759	303	2642	0.83	-1.78	1.0000 
	-2	-2	-22	2523	343	2382	1.01	-1.58	1.0000 
	-3	-2	-22	52	138	101	1.84	-0.66	1.0000 
	3	2	-22	417	144	531	1.71	-0.55	1.0000 
	2	-3	-22	165	134	229	1.5	1.97	1.0000 
	-2	3	-22	101	100	147	1.42	2.32	1.0000 
	-1	3	-22	1010	196	1064	0.52	0.4	1.0000 
	-3	-1	-22	1054	252	1142	0.93	-0.52	1.0000 
	1	-3	-22	851	240	913	0.7	-0.04	1.0000 
	3	1	-22	931	219	1012	0.87	-0.03	1.0000 
	-3	0	-22	896	239	1034	-1.28	-1.34	1.0000 
	0	-3	-22	985	264	1136	-1.31	-1.49	1.0000 
	0	3	-22	820	196	966	-1.37	-1.61	1.0000 
	3	0	-22	868	221	1028	-1.47	-1.69	1.0000 
	-1	-3	-22	926	264	1012	0.96	-0.5	1.0000 
	3	-1	-22	947	235	1007	0.65	-0.12	1.0000 
	1	3	-22	1289	217	1382	0.86	-0.11	1.0000 
	-3	1	-22	1134	244	1191	0.5	0.55	1.0000 
	-2	-3	-22	1	124	12	1.88	-0.83	1.0000 
	3	-2	-22	119	126	178	1.62	1.98	1.0000 
	-3	2	-22	295	148	373	1.29	2.46	1.0000 
	-3	3	-22	361	136	355	0.13	-0.42	1.0000 
	-3	-3	-22	236	174	223	0.27	0.88	1.0000 
	3	-3	-22	218	148	214	0.12	-0.35	1.0000 
	3	-4	-22	165	150	165	0.06	-0.6	1.0000 
	-4	-3	-22	403	182	398	-0.38	1.41	1.0000 
	2	-4	-22	408	212	508	1.64	-0.64	1.0000 
	-4	-2	-22	347	188	454	1.81	-0.01	1.0000 
	4	2	-22	705	195	879	1.91	1.06	1.0000 
	4	1	-22	6888	483	6853	0.19	-0.48	1.0000 
	-4	-1	-22	6092	520	6091	0.05	-0.49	1.0000 
	1	-4	-22	6709	544	6524	0.78	-0.16	1.0000 
	4	0	-22	6728	488	6544	-0.68	-0.79	1.0000 
	0	-4	-22	6348	544	6181	-0.66	-0.53	1.0000 
	-4	0	-22	7896	556	7666	-0.84	-0.39	1.0000 
	-1	-4	-22	5769	519	5763	0.08	-0.54	1.0000 
	4	-1	-22	7198	511	7021	0.7	-0.02	1.0000 
	-4	1	-22	6261	490	6169	0.39	-0.02	1.0000 
	4	-2	-22	271	161	369	1.9	-0.38	1.0000 
	-2	-4	-22	337	205	449	1.8	0.68	1.0000 
	-4	2	-22	1047	229	1201	1.48	0.46	1.0000 
	-3	-4	-22	323	185	311	-0.57	1.53	1.0000 
	4	-3	-22	129	128	130	0.13	-0.81	1.0000 
	-4	-4	-22	1814	372	2147	-2.55	0.25	1.0000 
	4	-4	-22	1456	314	1707	-2.29	1.56	1.0000 
	-5	-4	-22	5258	505	5078	-0.79	-0.5	1.0000 
	4	-5	-22	5581	503	5413	-0.91	1.39	1.0000 
	-5	-3	-22	1628	342	1817	-1.56	0.8	1.0000 
	3	-5	-22	2310	378	2476	-1.15	0.23	1.0000 
	5	2	-22	505	167	674	-2.36	-0.33	1.0000 
	-5	-2	-22	384	212	530	-2.34	-0.24	1.0000 
	2	-5	-22	95	157	182	-2	-1.55	1.0000 
	-5	-1	-22	5802	513	5903	0.51	-0.56	1.0000 
	1	-5	-22	5867	535	5974	0.46	0.04	1.0000 
	5	1	-22	6150	466	6287	0.65	-0.55	1.0000 
	5	0	-22	9365	577	8602	2.54	1.58	1.0000 
	0	-5	-22	8639	634	7982	2.27	1.46	1.0000 
	-5	0	-22	9082	613	8404	2.29	1.38	1.0000 
	-1	-5	-22	6337	564	6454	0.53	-0.33	1.0000 
	-5	1	-22	5764	495	5836	0.32	-0.02	1.0000 
	5	-1	-22	5493	471	5580	0.42	-0.25	1.0000 
	-2	-5	-22	182	203	272	-2.21	0.34	1.0000 
	5	-2	-22	30	108	83	-1.94	-1.61	1.0000 
	5	-3	-22	1295	295	1417	-1.13	0.32	1.0000 
	-3	-5	-22	1266	317	1426	-1.51	1.06	1.0000 
	5	-4	-22	6358	538	6164	-1	1.55	1.0000 
	-4	-5	-22	5851	557	5688	-0.68	-0.45	1.0000 
	5	-5	-22	8410	674	8759	-1.33	0.74	1.0000 
	-5	-5	-22	8499	703	8885	-1.36	-0.23	1.0000 
	-6	-5	-22	5126	541	5229	0.37	0.94	1.0000 
	5	-6	-22	5455	537	5583	0.64	-0.56	1.0000 
	-6	-4	-22	4375	503	4180	1.02	-0.26	1.0000 
	4	-6	-22	4355	493	4207	0.99	-1.89	1.0000 
	3	-6	-22	1232	293	1097	-1.36	0.45	1.0000 
	-6	-3	-22	1360	300	1255	-1.01	0.5	1.0000 
	2	-6	-22	5	139	63	-3.46	2.41	1.0000 
	6	2	-22	69	155	182	-3.31	1.74	1.0000 
	-6	-2	-22	21	120	96	-3.07	2.11	1.0000 
	1	-6	-22	1512	331	1590	-0.8	0.74	1.0000 
	6	1	-22	1410	265	1465	-0.46	-0.14	1.0000 
	6	1	-22	1682	317	1742	-0.46	-0.14	1.0000 
	-6	-1	-22	1363	302	1419	-0.38	-0.65	1.0000 
	0	-6	-22	1562	353	1803	2.27	-1.84	1.0000 
	6	0	-22	2411	356	2726	2.35	-1.68	1.0000 
	6	0	-22	2350	368	2662	2.35	-1.68	1.0000 
	6	-1	-22	1773	323	1870	-0.81	0.21	1.0000 
	-1	-6	-22	1390	330	1437	-0.36	-0.31	1.0000 
	6	-2	-22	105	121	252	-3.51	1.93	1.0000 
	-2	-6	-22	29	137	-103	-2.98	2.02	1.0000 
	-3	-6	-22	1306	314	1209	-0.97	0.61	1.0000 
	6	-3	-22	1204	269	1075	-1.35	0.76	1.0000 
	6	-4	-22	4422	448	4254	1.02	-1.45	1.0000 
	-4	-6	-22	4050	497	3875	0.89	0.43	1.0000 
	-5	-6	-22	5327	558	5419	0.29	1.15	1.0000 
	6	-5	-22	5506	541	5641	0.63	-0.27	1.0000 
	-6	-6	-22	3222	476	3394	-1.06	0.6	1.0000 
	6	-6	-22	3419	475	3553	-0.9	1.62	1.0000 
	-7	-6	-22	281	181	246	-0.72	-0.06	1.0000 
	6	-7	-22	560	234	536	-0.33	-0.06	1.0000 
	-7	-5	-22	723	249	684	0.38	1.7	1.0000 
	5	-7	-22	857	232	839	0.29	-0.68	1.0000 
	-7	-4	-22	729	262	660	-1.05	1.47	1.0000 
	4	-7	-22	1128	283	998	-1.28	-0.82	1.0000 
	7	3	-22	420	190	438	-0.22	-0.92	1.0000 
	3	-7	-22	396	198	403	-0.13	0.96	1.0000 
	2	-7	-22	95	148	97	-0.01	1.83	1.0000 
	7	2	-22	22	136	23	0.23	1.33	1.0000 
	7	1	-22	78	116	63	-1.19	0.73	1.0000 
	1	-7	-22	207	163	175	-1.31	0.54	1.0000 
	7	1	-22	163	89	143	-1.19	0.73	1.0000 
	0	-7	-22	181	177	231	-0.43	-1.23	1.0000 
	7	0	-22	2	137	11	-0.39	-1.77	1.0000 
	7	0	-22	48	74	85	-0.39	-1.77	1.0000 
	7	-1	-22	200	105	172	-1.32	0.67	1.0000 
	-1	-7	-22	5	132	-173	-1.21	0.94	1.0000 
	-2	-7	-22	90	154	91	0.07	1.16	1.0000 
	-2	-7	22	114	139	122	0.21	-1.43	1.0000 
	7	-2	-22	219	144	227	-0.17	2.27	1.0000 
	-3	-7	-22	425	227	437	-0.16	-0.54	1.0000 
	-3	-7	22	346	168	354	-0.12	0.41	1.0000 
	7	-3	-22	766	239	775	-0.08	1.48	1.0000 
	-4	-7	22	1211	245	1107	-1.17	-1.26	1.0000 
	-4	-7	-22	1215	300	1098	-1.41	1.89	1.0000 
	7	-4	-22	1204	272	1073	-1.25	-0.89	1.0000 
	7	-5	-22	1178	273	1167	0.21	-0.79	1.0000 
	-5	-7	-22	994	282	951	0.35	2.08	1.0000 
	-5	-7	22	1010	235	957	0.47	-1.49	1.0000 
	-6	-7	-22	741	289	687	-0.71	0.22	1.0000 
	7	-6	-22	626	193	603	-0.35	0.3	1.0000 
	7	-7	-22	280	157	270	0.47	-1.22	1.0000 
	-7	-7	-22	128	190	139	-0.1	-1.25	1.0000 
	6	-8	-22	410	175	456	0.79	-1.13	1.0000 
	5	-8	-22	287	184	312	-0.46	-0.27	1.0000 
	8	4	-22	354	184	310	-1.01	1.45	1.0000 
	4	-8	-22	518	198	427	-1.53	0.92	1.0000 
	8	3	-22	1	108	-16	0.58	-0.22	1.0000 
	3	-8	-22	74	131	68	0.23	0.73	1.0000 
	2	-8	-22	8	124	8	1.24	-2.11	1.0000 
	8	2	-22	177	135	232	0.99	-2.1	1.0000 
	8	1	-22	124	74	110	-0.53	0.33	1.0000 
	1	-8	-22	276	178	240	-0.67	-0.55	1.0000 
	8	1	-22	126	159	112	-0.53	0.33	1.0000 
	8	0	-22	1075	277	1234	-1.57	2.61	1.0000 
	0	-8	-22	990	305	1169	-1.82	2.78	1.0000 
	8	0	-22	907	239	1052	-1.57	2.61	1.0000 
	8	-1	-22	332	142	294	-0.78	0.18	1.0000 
	-1	-8	-22	424	213	402	-0.66	0.87	1.0000 
	8	-2	-22	32	143	43	0.74	-1.65	1.0000 
	-2	-8	22	74	125	107	0.72	2.05	1.0000 
	-2	-8	-22	79	156	104	0.72	-1.78	1.0000 
	-3	-8	22	5	125	2	0.61	-0.14	1.0000 
	-3	-8	-22	208	93	182	0.62	0.2	1.0000 
	-3	-8	-22	96	163	78	0.62	0.2	1.0000 
	8	-3	-22	253	96	242	0.27	0.89	1.0000 
	8	-4	-22	364	136	303	-1.28	1.16	1.0000 
	-4	-8	22	828	195	768	-1.05	-1.8	1.0000 
	-4	-8	-22	267	209	227	-1.09	1.69	1.0000 
	8	-5	-22	412	183	447	-0.52	-0.34	1.0000 
	-5	-8	-22	314	208	338	-0.5	0.73	1.0000 
	-5	-8	22	559	196	588	-0.41	-0.09	1.0000 
	-6	-8	-22	522	242	525	0.06	-0.2	1.0000 
	-6	-8	22	214	165	235	0.5	0.5	1.0000 
	8	-6	-22	565	189	617	0.75	-1.11	1.0000 
	-7	-8	22	111	142	114	0.5	0.97	1.0000 
	-7	-8	-22	25	189	35	0.12	-1.45	1.0000 
	9	5	-22	1611	378	1691	0.87	-1.7	1.0000 
	5	-9	-22	1914	376	2022	0.79	0.19	1.0000 
	4	-9	-22	1259	289	1140	1.15	0.08	1.0000 
	9	4	-22	1442	359	1301	1.58	-1.51	1.0000 
	3	-9	-22	3	116	-11	-1.02	-0.47	1.0000 
	9	3	-22	12	129	8	-0.64	0.67	1.0000 
	9	2	-22	976	244	805	-1.88	-0.59	1.0000 
	2	-9	-22	1192	285	1068	-1.19	-1.42	1.0000 
	1	-9	-22	4636	523	4425	1.11	-0.58	1.0000 
	9	1	-22	3693	363	3589	0.58	-0.07	1.0000 
	9	1	-22	3961	488	3853	0.58	-0.07	1.0000 
	9	0	-22	8561	656	8896	1.12	1.08	1.0000 
	9	0	-22	8219	693	8548	1.12	1.08	1.0000 
	0	-9	-22	9372	739	9710	1.1	0.82	1.0000 
	9	-1	-22	4357	435	4161	1.05	-0.41	1.0000 
	-1	-9	-22	4488	521	4380	0.56	-0.19	1.0000 
	-2	-9	-22	904	235	728	-2.04	-0.39	1.0000 
	9	-2	-22	1264	249	1117	-1.38	-1.32	1.0000 
	-3	-9	22	387	142	355	-0.87	-0.54	1.0000 
	-3	-9	-22	3	151	0	-0.76	0.78	1.0000 
	-3	-9	-22	93	82	83	-0.76	0.78	1.0000 
	9	-3	-22	148	96	106	-1.12	-0.75	1.0000 
	-4	-9	22	1011	217	891	1.47	0.87	1.0000 
	9	-4	-22	1007	260	896	1.16	0.37	1.0000 
	-4	-9	-22	1250	290	1111	1.56	-1.06	1.0000 
	-5	-9	-22	702	250	718	0.43	-1.63	1.0000 
	-5	-9	22	1372	278	1422	0.66	1.65	1.0000 
	9	-5	-22	1695	336	1799	0.73	0.64	1.0000 
	-6	-9	-22	1334	333	1309	0.26	-0.23	1.0000 
	-6	-9	22	1488	293	1420	0.6	-0.07	1.0000 
	10	4	-22	1065	297	1090	0.35	-0.61	1.0000 
	4	-10	-22	1403	319	1452	0.45	-0.05	1.0000 
	3	-10	-22	116	162	163	-0.63	-1.58	1.0000 
	10	3	-22	127	179	168	-1.14	-0.15	1.0000 
	10	2	-22	1339	304	1364	-0.24	0.18	1.0000 
	2	-10	-22	1011	295	1023	-0.03	-0.92	1.0000 
	10	1	-22	4486	560	4628	0.72	-0.18	1.0000 
	1	-10	-22	4801	526	5040	1.12	0.25	1.0000 
	10	0	-22	9132	668	8941	0.73	-0.58	1.0000 
	0	-10	-22	9155	710	8943	0.82	-0.78	1.0000 
	10	0	-22	8382	688	8199	0.73	-0.58	1.0000 
	-1	-10	-22	4248	521	4377	0.72	-0.66	1.0000 
	10	-1	-22	3869	431	4072	1.1	-0.18	1.0000 
	10	-2	-22	708	204	712	0.03	-0.8	1.0000 
	-2	-10	-22	1362	259	1389	-0.25	0.05	1.0000 
	-2	-10	-22	1420	335	1448	-0.25	0.05	1.0000 
	-3	-10	-22	14	80	34	-1.35	-0.27	1.0000 
	-3	-10	-22	9	130	26	-1.35	-0.27	1.0000 
	10	-3	-22	21	111	44	-0.76	-1.55	1.0000 
	-3	-10	22	179	125	235	-1.37	-0.08	1.0000 
	-4	-10	-22	1938	413	1974	0.39	-0.8	1.0000 
	-4	-10	-22	1184	215	1212	0.39	-0.8	1.0000 
	-4	-10	22	1708	305	1725	0.17	0.17	1.0000 
	-5	-10	-22	2549	419	2494	0.53	-0.98	1.0000 
	-5	-10	22	2834	401	2758	0.62	0.84	1.0000 
	2	-11	-22	607	232	777	2.22	-0.55	1.0000 
	1	-11	-22	2124	392	2257	-0.97	0.14	1.0000 
	11	1	-22	1595	353	1728	-1.09	-0.03	1.0000 
	0	-11	-22	4718	531	4335	-1.91	0.06	1.0000 
	11	0	-22	4378	416	4022	-1.89	0.41	1.0000 
	11	0	-22	4801	480	4428	-1.89	0.41	1.0000 
	-1	-11	-22	2076	394	2231	-1.11	-0.14	1.0000 
	11	-1	-22	1986	357	2117	-0.98	0.06	1.0000 
	-2	-11	-22	384	202	506	1.91	0.34	1.0000 
	-2	-11	-22	205	118	297	1.91	0.34	1.0000 
	11	-2	22	252	188	365	2.21	0.43	1.0000 
	-3	-11	-22	400	227	515	1.8	0.14	1.0000 
	1	-1	-23	469	200	637	-2.35	-0.76	1.0000 
	1	1	-23	504	189	699	2.67	0.11	1.0000 
	-1	1	-23	582	197	763	-2.3	-0.59	1.0000 
	-1	-1	-23	558	213	758	2.62	0.7	1.0000 
	-1	2	-23	436	145	358	-1.4	0.72	1.0000 
	1	-2	-23	434	168	348	-1.54	0.72	1.0000 
	2	1	-23	293	132	219	1.53	-0.4	1.0000 
	-2	-1	-23	233	129	168	1.53	-0.26	1.0000 
	-2	1	-23	368	144	294	-1.42	0.61	1.0000 
	1	2	-23	343	130	263	1.52	-0.48	1.0000 
	2	-1	-23	285	130	217	-1.53	0.86	1.0000 
	-1	-2	-23	146	132	97	1.47	-0.21	1.0000 
	-2	-2	-23	5	128	37	2.12	1.59	1.0000 
	-2	2	-23	4	81	8	-2.26	-1.1	1.0000 
	2	-2	-23	86	144	150	-2.24	-0.8	1.0000 
	2	2	-23	213	134	349	2.21	1.61	1.0000 
	-2	3	-23	1067	203	944	-1.24	-1.28	1.0000 
	-3	-2	-23	1008	257	936	0.92	1.3	1.0000 
	2	-3	-23	1019	251	901	-1.22	-0.99	1.0000 
	3	2	-23	744	185	687	0.89	1.58	1.0000 
	3	1	-23	1278	230	1198	-0.83	1.12	1.0000 
	-3	-1	-23	988	250	919	-0.8	0.85	1.0000 
	-1	3	-23	1191	217	1189	0	-0.45	1.0000 
	1	-3	-23	1354	299	1349	0.05	0.12	1.0000 
	3	-1	-23	1294	253	1294	0	-0.04	1.0000 
	-1	-3	-23	1405	285	1304	-0.95	0.51	1.0000 
	-3	1	-23	1041	241	1038	0.02	-0.24	1.0000 
	-2	-3	-23	1188	271	1118	0.84	1.35	1.0000 
	-3	2	-23	972	205	861	-1.18	-1.09	1.0000 
	3	-2	-23	1248	265	1124	-1.15	-1.1	1.0000 
	3	-3	-23	3308	407	3250	0.36	-0.4	1.0000 
	-3	-3	-23	2596	388	2699	0.64	-0.67	1.0000 
	-3	3	-23	2547	310	2499	0.33	-0.3	1.0000 
	3	-4	-23	804	256	896	0.85	2.04	1.0000 
	-4	-3	-23	679	243	750	-0.86	-2.43	1.0000 
	-4	-2	-23	221	138	211	-0.22	-0.1	1.0000 
	2	-4	-23	122	154	115	0.26	0.42	1.0000 
	4	2	-23	214	120	198	-0.39	0.17	1.0000 
	-4	-1	-23	306	176	357	-0.69	2.81	1.0000 
	4	1	-23	403	150	465	-0.62	3.15	1.0000 
	1	-4	-23	421	215	516	0.86	-2.91	1.0000 
	4	-1	-23	232	139	288	0.57	-3.03	1.0000 
	-4	1	-23	123	127	163	0.68	-3.09	1.0000 
	-1	-4	-23	210	178	257	-0.92	2.39	1.0000 
	-4	2	-23	198	140	190	0.23	0.33	1.0000 
	-2	-4	-23	503	193	476	-0.4	-0.05	1.0000 
	4	-2	-23	343	148	338	0.15	0.47	1.0000 
	-3	-4	-23	657	231	724	-0.86	-1.91	1.0000 
	4	-3	-23	1035	270	1127	0.78	1.63	1.0000 
	4	-4	-23	411	180	400	0.18	-0.09	1.0000 
	-4	-4	-23	729	266	750	0.1	-1.56	1.0000 
	4	-5	-23	53	130	107	-1.99	-0.6	1.0000 
	-5	-4	-23	11	149	-120	2.21	-0.18	1.0000 
	3	-5	-23	0	122	-18	-0.33	-0.09	1.0000 
	-5	-3	-23	75	120	67	0.3	-0.07	1.0000 
	-5	-2	-23	9	118	-26	-1.92	-0.65	1.0000 
	2	-5	-23	8	102	-55	1.91	-0.11	1.0000 
	5	1	-23	5	59	-10	-1.32	-0.61	1.0000 
	1	-5	-23	6	109	-29	1.63	-0.38	1.0000 
	-5	-1	-23	5	122	-13	-1.26	-0.79	1.0000 
	5	-1	-23	32	102	66	1.61	-0.22	1.0000 
	-5	1	-23	6	98	-3	1.66	-0.21	1.0000 
	-1	-5	-23	248	167	301	-1.05	-0.26	1.0000 
	5	-2	-23	8	82	-66	1.92	-0.08	1.0000 
	-2	-5	-23	9	141	-35	-1.97	-0.59	1.0000 
	-3	-5	-23	0	132	-106	0.21	-0.13	1.0000 
	5	-3	-23	0	69	-95	-0.32	-0.27	1.0000 
	-4	-5	-23	12	171	45	2.13	0.08	1.0000 
	5	-4	-23	11	111	44	-2.05	-0.95	1.0000 
	5	-5	-23	128	114	52	-2.76	-0.78	1.0000 
	-5	-5	-23	112	186	47	2.49	0.83	1.0000 
	5	-6	-23	129	122	203	-1.92	0.16	1.0000 
	-6	-5	-23	3	142	18	2.33	2.09	1.0000 
	-6	-4	-23	16	147	-168	2.32	1.39	1.0000 
	4	-6	-23	1	139	6	-2.27	-0.76	1.0000 
	-6	-3	-23	210	158	332	2.23	1.11	1.0000 
	3	-6	-23	26	108	-83	-1.96	-2.81	1.0000 
	-6	-2	-23	110	133	166	-1.32	-1.01	1.0000 
	2	-6	-23	3	125	-167	1.09	0.12	1.0000 
	6	1	-23	153	123	344	-1.73	-4.03	1.0000 
	-6	-1	-23	62	146	182	-1.55	-3.78	1.0000 
	1	-6	-23	46	161	145	1.19	3.63	1.0000 
	6	-1	-23	43	70	-61	1.61	4.07	1.0000 
	-1	-6	-23	32	149	75	-0.7	-2.56	1.0000 
	-2	-6	-23	32	157	57	-1.07	-0.78	1.0000 
	6	-2	-23	67	131	102	1.31	0.04	1.0000 
	6	-3	-23	88	122	181	-1.91	-2.71	1.0000 
	-3	-6	-23	11	147	-65	2.14	0.51	1.0000 
	-4	-6	-23	201	224	311	2	1.48	1.0000 
	6	-4	-23	5	116	2	-2.34	-0.69	1.0000 
	-5	-6	-23	45	175	107	1.93	2.19	1.0000 
	6	-5	-23	62	126	116	-1.92	0.1	1.0000 
	6	-6	-23	232	166	349	-2.29	-0.18	1.0000 
	-6	-6	-23	127	181	250	3.01	1.19	1.0000 
	-7	-6	-23	245	194	227	0.41	-0.3	1.0000 
	6	-7	-23	296	167	286	-0.23	1.61	1.0000 
	5	-7	-23	8	124	-81	1.13	1.48	1.0000 
	-7	-5	-23	12	148	-65	-0.89	2.15	1.0000 
	4	-7	-23	271	142	273	0.02	-0.4	1.0000 
	-7	-4	-23	110	164	116	0.19	1.61	1.0000 
	3	-7	-23	370	172	298	-1.25	-1.01	1.0000 
	-7	-3	-23	443	174	377	1.05	-2.05	1.0000 
	7	2	-23	636	243	731	1.26	-2.4	1.0000 
	2	-7	-23	349	211	429	-1.28	1.06	1.0000 
	7	1	-23	272	79	191	1.91	-1.03	1.0000 
	7	1	-23	329	169	239	1.91	-1.03	1.0000 
	1	-7	-23	337	188	251	-1.7	1.8	1.0000 
	-1	-7	-23	212	164	128	2.25	-0.75	1.0000 
	7	-1	-23	312	141	229	-1.71	1.83	1.0000 
	7	-2	-23	641	220	749	-1.26	1.28	1.0000 
	-2	-7	-23	468	231	553	1.34	-2.26	1.0000 
	-3	-7	-23	192	186	145	1.08	-2	1.0000 
	7	-3	-23	343	150	277	-1.2	-0.75	1.0000 
	-4	-7	-23	60	171	60	0.05	1.4	1.0000 
	7	-4	-23	175	123	177	0	-0.31	1.0000 
	-5	-7	-23	171	193	244	-0.97	1.63	1.0000 
	7	-5	-23	87	108	141	1.25	1.35	1.0000 
	-6	-7	-23	408	225	375	0.63	-0.6	1.0000 
	7	-6	-23	235	134	227	-0.19	1.61	1.0000 
	7	-7	-23	126	143	176	-1.44	0.76	1.0000 
	-7	-7	-23	288	237	372	1.45	-0.8	1.0000 
	6	-8	-23	13	80	-184	0.93	2.27	1.0000 
	5	-8	-23	37	126	38	-0.07	0.51	1.0000 
	4	-8	-23	506	228	481	-0.36	-1.34	1.0000 
	8	3	-23	301	165	220	-1.62	-1.87	1.0000 
	3	-8	-23	150	156	113	1.16	0.79	1.0000 
	2	-8	-23	193	164	195	-0.06	1.36	1.0000 
	8	2	-23	421	183	411	0.11	-1.95	1.0000 
	1	-8	-23	103	152	159	-1.6	-0.47	1.0000 
	8	1	-23	176	108	272	2.19	0.68	1.0000 
	8	1	-23	109	139	187	2.19	0.68	1.0000 
	8	-1	-23	221	107	318	-1.87	-0.88	1.0000 
	-1	-8	-23	158	157	232	1.8	0.14	1.0000 
	-2	-8	-23	518	218	510	0.07	-1.82	1.0000 
	8	-2	-23	616	177	620	-0.14	1.58	1.0000 
	8	-3	-23	377	139	312	1.31	0.99	1.0000 
	-3	-8	-23	771	261	650	-1.49	-1.48	1.0000 
	-3	-8	23	609	178	503	-1.51	2.2	1.0000 
	8	-4	-23	464	174	447	-0.25	-0.96	1.0000 
	-4	-8	-23	610	245	589	0.3	0.24	1.0000 
	-4	-8	23	411	168	381	0.49	0.14	1.0000 
	-5	-8	23	490	155	502	0.06	1.13	1.0000 
	-5	-8	-23	146	160	146	-0.02	-0.66	1.0000 
	8	-5	-23	22	115	22	0.01	0.82	1.0000 
	-6	-8	-23	8	168	-132	-0.95	-1.66	1.0000 
	-6	-8	23	136	151	146	-0.88	1.85	1.0000 
	8	-6	-23	190	138	179	1.09	2.31	1.0000 
	9	4	-23	163	131	210	1.1	-1.02	1.0000 
	4	-9	-23	66	125	117	-1.81	-0.69	1.0000 
	9	3	-23	3	99	-124	0.01	1.11	1.0000 
	3	-9	-23	0	120	-39	0.17	0.4	1.0000 
	2	-9	-23	61	134	36	1.21	-0.02	1.0000 
	9	2	-23	73	136	56	-0.62	1.27	1.0000 
	9	1	-23	5	141	-35	-1.47	0.12	1.0000 
	1	-9	-23	171	167	236	1.48	-0.52	1.0000 
	-1	-9	-23	240	188	327	-1.74	0.11	1.0000 
	9	-1	-23	22	90	48	1.46	-0.61	1.0000 
	-2	-9	-23	35	135	23	-0.61	1.33	1.0000 
	9	-2	-23	452	145	381	1.18	-0.05	1.0000 
	-3	-9	23	115	131	108	0.18	-0.99	1.0000 
	-3	-9	-23	31	140	28	0.07	1.14	1.0000 
	-3	-9	-23	3	78	-5	0.07	1.14	1.0000 
	9	-3	-23	0	85	-138	0.19	0.15	1.0000 
	-4	-9	-23	112	194	149	0.98	-1.38	1.0000 
	9	-4	-23	55	119	99	-1.71	-0.23	1.0000 
	-4	-9	23	218	145	286	1.11	2.01	1.0000 
	-5	-9	-23	185	186	282	1.35	-2.08	1.0000 
	-5	-9	23	138	190	250	1.32	2.9	1.0000 
	10	3	-23	39	158	41	0.07	0.81	1.0000 
	3	-10	-23	243	146	240	0.08	0.24	1.0000 
	10	2	-23	196	177	266	-1.14	1.86	1.0000 
	2	-10	-23	64	151	103	1.44	-0.2	1.0000 
	1	-10	-23	452	194	357	1.59	0.1	1.0000 
	10	-1	-23	7	70	-92	1.71	0.13	1.0000 
	-1	-10	-23	310	143	233	-1.69	0.8	1.0000 
	-2	-10	-23	217	116	290	-1.19	1.71	1.0000 
	-2	-10	-23	105	160	156	-1.19	1.71	1.0000 
	10	-2	-23	186	128	247	1.38	-0.23	1.0000 
	10	-3	-23	31	115	31	0.01	0.18	1.0000 
	-3	-10	-23	428	202	434	0.05	0.64	1.0000 
	-3	-10	-23	188	100	192	0.05	0.64	1.0000 
	-4	-10	-23	208	196	230	-0.34	-1.27	1.0000 
	-4	-10	23	379	152	422	-0.37	1.81	1.0000 
	0	0	-24	12890	755	12566	-0.9	-0.61	1.0000 
	0	-1	-24	8180	579	8016	0.58	0.26	1.0000 
	1	0	-24	7621	550	7465	0.57	0.3	1.0000 
	-1	0	-24	8100	571	7933	0.6	0.21	1.0000 
	0	1	-24	7813	541	7642	0.62	0.29	1.0000 
	-1	1	-24	5223	415	5086	-0.58	-0.53	1.0000 
	-1	-1	-24	4577	427	4472	-0.51	-0.11	1.0000 
	1	1	-24	4711	402	4622	-0.47	0.26	1.0000 
	1	-1	-24	3928	400	3839	-0.43	-0.48	1.0000 
	1	-2	-24	1549	307	1658	-0.86	-0.61	1.0000 
	-2	-1	-24	2083	324	2152	-0.43	-0.83	1.0000 
	-1	2	-24	1918	291	2060	-1.01	-0.68	1.0000 
	2	1	-24	1885	290	1952	-0.48	-0.38	1.0000 
	2	0	-24	2370	332	2447	0.55	-0.41	1.0000 
	-2	0	-24	2112	318	2195	0.63	-0.47	1.0000 
	0	-2	-24	2384	368	2490	0.75	-0.41	1.0000 
	0	2	-24	2660	319	2734	0.5	-0.39	1.0000 
	-1	-2	-24	1371	294	1434	-0.5	-0.66	1.0000 
	1	2	-24	2183	293	2269	-0.57	-0.55	1.0000 
	2	-1	-24	1903	315	2033	-0.9	-0.87	1.0000 
	-2	1	-24	1882	308	2024	-1.04	-0.52	1.0000 
	-2	2	-24	1775	282	1875	0.78	0	1.0000 
	2	-2	-24	2338	348	2476	0.95	-0.44	1.0000 
	2	2	-24	2161	297	2277	0.71	1.88	1.0000 
	-2	-2	-24	1574	309	1662	0.62	1.89	1.0000 
	2	-3	-24	77	145	139	2.32	1.75	1.0000 
	3	2	-24	8	86	30	1.88	2.71	1.0000 
	-3	-2	-24	25	85	-156	1.84	2.81	1.0000 
	-2	3	-24	27	85	61	2.54	1.42	1.0000 
	-3	-1	-24	952	246	894	0.61	0.39	1.0000 
	-1	3	-24	1089	205	981	1.11	0.26	1.0000 
	1	-3	-24	744	237	660	1.06	0.03	1.0000 
	3	1	-24	622	178	580	0.56	0.26	1.0000 
	3	0	-24	1484	261	1439	-0.32	-1.42	1.0000 
	0	-3	-24	1649	308	1617	-0.18	-1.6	1.0000 
	-3	0	-24	1292	274	1248	-0.34	-1.23	1.0000 
	3	-1	-24	755	210	668	1.09	0.04	1.0000 
	-1	-3	-24	765	231	719	0.54	0.31	1.0000 
	-3	1	-24	1115	249	1018	0.98	0.19	1.0000 
	-3	2	-24	44	93	89	2.38	1.61	1.0000 
	-2	-3	-24	27	98	-81	1.7	2.99	1.0000 
	3	-2	-24	16	119	40	2.46	1.54	1.0000 
	-3	3	-24	73	94	101	0.58	1.64	1.0000 
	-3	-3	-24	53	128	62	0.15	1.21	1.0000 
	3	-3	-24	198	155	244	0.56	1.67	1.0000 
	3	-4	-24	32	126	66	-1.85	0.85	1.0000 
	-4	-3	-24	211	163	285	-1.49	-0.63	1.0000 
	2	-4	-24	713	226	727	-0.22	0.52	1.0000 
	-4	-2	-24	1082	250	1101	-0.17	-0.2	1.0000 
	1	-4	-24	7202	615	7593	1.49	0.39	1.0000 
	4	1	-24	8110	570	8413	1.02	1.05	1.0000 
	-4	-1	-24	8441	641	8718	0.89	1.24	1.0000 
	-4	0	-24	12348	776	12220	0.32	0.99	1.0000 
	0	-4	-24	11648	786	11512	0.35	1.02	1.0000 
	4	0	-24	12537	743	12373	0.42	0.93	1.0000 
	4	-1	-24	7148	573	7531	1.46	0.38	1.0000 
	-4	1	-24	8238	605	8592	1.27	0.29	1.0000 
	-1	-4	-24	7661	629	7951	1	1.11	1.0000 
	-4	2	-24	735	213	750	-0.2	0.12	1.0000 
	4	-2	-24	855	224	873	-0.25	0.48	1.0000 
	-2	-4	-24	726	228	734	-0.07	-0.26	1.0000 
	4	-3	-24	193	129	273	-1.83	0.67	1.0000 
	-3	-4	-24	361	177	454	-1.51	-0.39	1.0000 
	4	-4	-24	2945	410	2937	-0.13	0.66	1.0000 
	-4	-4	-24	3885	484	3967	0.29	1.2	1.0000 
	4	-5	-24	6222	548	6033	0.79	0.17	1.0000 
	-5	-4	-24	5947	553	5678	1.13	0.58	1.0000 
	3	-5	-24	676	215	612	-0.84	0.03	1.0000 
	-5	-3	-24	980	268	915	-0.67	-0.54	1.0000 
	-5	-2	-24	634	198	506	-1.63	-1.93	1.0000 
	2	-5	-24	629	217	547	-1.05	-0.6	1.0000 
	-5	-1	-24	6131	534	6159	-0.12	0.02	1.0000 
	5	1	-24	6580	494	6539	0.13	0.4	1.0000 
	1	-5	-24	6057	556	6053	-0.06	0.73	1.0000 
	5	0	-24	11269	718	11537	0.63	1.88	1.0000 
	-5	0	-24	11243	758	11454	0.45	1.88	1.0000 
	0	-5	-24	11251	787	11413	0.31	1.78	1.0000 
	-1	-5	-24	6858	596	6862	-0.04	0.23	1.0000 
	5	-1	-24	6794	540	6795	-0.05	0.39	1.0000 
	-5	1	-24	7627	578	7657	-0.2	0.86	1.0000 
	-2	-5	-24	852	261	719	-1.46	-1.27	1.0000 
	5	-2	-24	891	235	786	-1.11	-0.8	1.0000 
	-3	-5	-24	981	300	934	-0.47	-0.45	1.0000 
	5	-3	-24	1032	239	945	-0.92	-0.02	1.0000 
	5	-4	-24	6861	574	6700	0.64	0.1	1.0000 
	-4	-5	-24	6216	588	5903	1.31	0.38	1.0000 
	5	-5	-24	8891	704	9142	0.87	0.12	1.0000 
	-5	-5	-24	9178	743	9451	0.94	0.05	1.0000 
	-6	-5	-24	6546	609	6426	0.53	-0.27	1.0000 
	5	-6	-24	6881	606	6788	0.31	0.66	1.0000 
	4	-6	-24	3901	501	4152	1.35	-0.23	1.0000 
	-6	-4	-24	4640	517	4896	1.33	-1.03	1.0000 
	3	-6	-24	681	246	609	0.95	0	1.0000 
	-6	-3	-24	1009	262	923	0.91	0.27	1.0000 
	-6	-2	-24	410	182	433	-0.41	0.14	1.0000 
	2	-6	-24	96	175	113	-0.69	0.7	1.0000 
	-6	-1	-24	4276	473	4141	-0.66	-0.29	1.0000 
	6	1	-24	3835	358	3713	-0.69	0.2	1.0000 
	1	-6	-24	4460	506	4238	-1.2	0.52	1.0000 
	0	-6	-24	5836	573	6100	-1.15	-0.01	1.0000 
	6	0	-24	5437	474	5678	-1.08	-0.03	1.0000 
	6	-1	-24	4122	401	3901	-1.19	0.16	1.0000 
	-1	-6	-24	4427	508	4271	-0.78	-0.1	1.0000 
	6	-2	-24	431	156	468	-0.67	0.59	1.0000 
	-2	-6	-24	191	193	211	-0.57	0.5	1.0000 
	6	-3	-24	919	256	841	0.86	0.12	1.0000 
	-3	-6	-24	534	241	466	1.01	0.13	1.0000 
	-4	-6	-24	5026	554	5306	1.41	-1.34	1.0000 
	6	-4	-24	4367	469	4623	1.29	-0.07	1.0000 
	6	-5	-24	6597	581	6501	0.33	0.7	1.0000 
	-5	-6	-24	6598	618	6484	0.49	-0.18	1.0000 
	6	-6	-24	3746	479	3700	-0.36	0.83	1.0000 
	-6	-6	-24	2940	464	2926	-0.2	0.91	1.0000 
	-7	-6	-24	239	198	256	-0.38	0.16	1.0000 
	6	-7	-24	648	211	697	-0.63	0.02	1.0000 
	5	-7	-24	1434	332	1412	-0.25	0.54	1.0000 
	-7	-5	-24	1469	365	1476	0.08	-0.21	1.0000 
	-7	-4	-24	916	273	864	0.72	-1.08	1.0000 
	4	-7	-24	975	281	915	0.81	-1.24	1.0000 
	3	-7	-24	192	142	228	0.86	-0.84	1.0000 
	-7	-3	-24	174	131	204	0.68	0.46	1.0000 
	2	-7	-24	17	134	34	0.12	1.46	1.0000 
	1	-7	-24	742	267	764	-0.34	0.73	1.0000 
	7	1	-24	841	210	821	0.15	1.09	1.0000 
	7	1	-24	819	231	799	0.15	1.09	1.0000 
	7	0	-24	881	215	792	-1.09	0.27	1.0000 
	0	-7	-24	760	258	693	-0.93	0.48	1.0000 
	7	-1	-24	712	211	735	-0.36	0.82	1.0000 
	-1	-7	-24	1379	332	1358	0.12	0.89	1.0000 
	7	-2	-24	46	90	75	0.02	1.6	1.0000 
	-2	-7	-24	50	157	74	0.67	0.8	1.0000 
	7	-3	-24	129	108	158	0.86	-0.91	1.0000 
	-3	-7	-24	434	213	477	0.62	0.57	1.0000 
	-4	-7	-24	1474	338	1423	0.54	-0.79	1.0000 
	7	-4	-24	960	228	889	0.93	-1.14	1.0000 
	-5	-7	-24	1484	365	1485	0.03	-0.2	1.0000 
	7	-5	-24	1965	382	1951	-0.17	0.6	1.0000 
	-6	-7	-24	517	277	552	-0.53	0.24	1.0000 
	7	-6	-24	908	278	967	-0.65	0.04	1.0000 
	-7	-7	-24	163	157	128	-0.95	-0.67	1.0000 
	5	-8	-24	445	172	458	0.22	-0.11	1.0000 
	4	-8	-24	486	192	526	-0.6	0.11	1.0000 
	8	3	-24	122	125	120	-0.04	-0.44	1.0000 
	3	-8	-24	91	151	92	0.03	0.05	1.0000 
	2	-8	-24	10	131	24	-0.64	1.12	1.0000 
	8	2	-24	2	118	-58	-0.86	-0.46	1.0000 
	8	1	-24	27	108	26	-0.07	0.46	1.0000 
	1	-8	-24	2	125	-77	-0.1	1.05	1.0000 
	0	-8	-24	308	182	412	1.72	1.07	1.0000 
	8	0	-24	466	157	594	1.74	0.99	1.0000 
	8	-1	-24	15	89	12	-0.07	1.42	1.0000 
	-1	-8	-24	113	133	112	-0.15	0.71	1.0000 
	-2	-8	-24	61	142	85	-0.92	-0.68	1.0000 
	8	-2	-24	10	91	29	-0.75	1.42	1.0000 
	-3	-8	-24	249	184	247	-0.03	-0.62	1.0000 
	8	-3	-24	431	168	437	0.09	0.11	1.0000 
	-3	-8	24	408	133	402	-0.1	0.46	1.0000 
	-4	-8	24	545	176	590	-0.62	0.19	1.0000 
	-4	-8	-24	364	241	412	-0.83	0.37	1.0000 
	8	-4	-24	773	211	828	-0.65	-0.01	1.0000 
	-5	-8	-24	201	187	212	0.22	0.38	1.0000 
	8	-5	-24	481	211	493	0.21	-0.22	1.0000 
	-6	-8	-24	586	241	494	1.33	0.05	1.0000 
	9	4	-24	907	292	900	-0.06	-0.17	1.0000 
	9	3	-24	8	113	-28	1.51	-1.2	1.0000 
	3	-9	-24	123	145	95	0.79	1.77	1.0000 
	9	2	-24	643	213	620	0.41	-0.78	1.0000 
	2	-9	-24	698	232	661	0.49	-0.12	1.0000 
	1	-9	-24	2601	443	2503	-0.66	0.07	1.0000 
	9	1	-24	2313	390	2143	-1.2	-0.1	1.0000 
	0	-9	-24	4478	553	4535	-0.35	0.68	1.0000 
	-1	-9	-24	2043	389	1887	-1.19	0.01	1.0000 
	9	-1	-24	2202	352	2104	-0.71	0.01	1.0000 
	-2	-9	-24	400	204	389	0.3	-0.88	1.0000 
	9	-2	-24	394	149	370	0.42	-0.09	1.0000 
	-3	-9	-24	286	180	240	1.42	-1.28	1.0000 
	9	-3	-24	189	128	154	0.85	1.85	1.0000 
	-4	-9	24	1056	205	1045	-0.09	0.19	1.0000 
	-4	-9	-24	551	242	538	-0.14	-0.37	1.0000 
	-5	-9	24	1799	320	1765	0.21	-0.44	1.0000 
	10	2	-24	378	199	425	0.74	0.42	1.0000 
	10	1	-24	4256	553	4451	-0.99	-0.04	1.0000 
	1	-10	-24	3666	520	3728	-0.37	0.34	1.0000 
	0	-10	-24	6894	615	6390	-2.07	-0.07	1.0000 
	10	0	-24	7226	558	6712	-2.05	-0.12	1.0000 
	-1	-10	-24	3381	497	3550	-0.93	-0.31	1.0000 
	10	-1	-24	3983	422	4050	-0.36	0.07	1.0000 
	10	-2	-24	811	228	885	0.88	-0.3	1.0000 
	-2	-10	-24	316	200	362	0.8	0.37	1.0000 
	-2	-10	-24	357	124	406	0.8	0.37	1.0000 
	-3	-10	-24	300	108	339	0.82	-0.74	1.0000 
	-4	-10	24	2104	304	2093	0.22	0.8	1.0000 
	-1	1	-25	16	101	114	-4.53	-1.78	1.0000 
	1	1	-25	26	104	131	4.28	-1.94	1.0000 
	-1	-1	-25	50	122	181	4.39	-1.53	1.0000 
	1	-1	-25	35	134	161	-4.4	-2.11	1.0000 
	1	-2	-25	199	141	212	0.38	-1.41	1.0000 
	-1	2	-25	126	102	137	0.42	-1.57	1.0000 
	2	1	-25	288	143	295	-0.13	0	1.0000 
	-2	-1	-25	479	195	498	-0.23	0.37	1.0000 
	2	-1	-25	334	147	353	0.37	-1.65	1.0000 
	1	2	-25	212	108	220	-0.15	0.2	1.0000 
	-1	-2	-25	229	165	235	-0.12	0.06	1.0000 
	-2	1	-25	234	136	252	0.44	-1.4	1.0000 
	2	2	-25	1720	261	1759	0.09	1.98	1.0000 
	2	-2	-25	1717	309	1761	-0.33	0.21	1.0000 
	-2	-2	-25	1687	313	1720	0.05	1.91	1.0000 
	-2	2	-25	1369	263	1405	-0.29	0.33	1.0000 
	2	-3	-25	574	195	570	-0.65	2.25	1.0000 
	-3	-2	-25	367	162	379	0.31	2.07	1.0000 
	-2	3	-25	584	173	585	-0.56	2.25	1.0000 
	3	1	-25	29	111	115	-2.96	2.33	1.0000 
	1	-3	-25	14	125	1	2.71	1.57	1.0000 
	-3	-1	-25	54	136	155	-3.03	1.92	1.0000 
	-1	-3	-25	29	115	-47	-3.06	1.92	1.0000 
	-3	1	-25	8	101	45	2.61	1.24	1.0000 
	3	-1	-25	25	119	85	2.69	1.34	1.0000 
	3	-2	-25	624	202	624	-0.55	2.15	1.0000 
	-3	2	-25	557	184	555	-0.67	2.39	1.0000 
	-2	-3	-25	692	224	703	0.27	1.65	1.0000 
	-3	-3	-25	60	134	70	0.82	-2.05	1.0000 
	3	-3	-25	229	141	235	-0.16	-0.04	1.0000 
	-3	3	-25	122	94	147	-0.41	0.84	1.0000 
	-4	-3	-25	25	108	-61	-0.15	-3.32	1.0000 
	3	-4	-25	276	186	386	1.39	-1.61	1.0000 
	2	-4	-25	432	155	362	1.11	0.73	1.0000 
	-4	-2	-25	324	163	269	-1.11	-0.14	1.0000 
	1	-4	-25	22	124	-51	1.6	2.66	1.0000 
	-4	-1	-25	84	113	165	-2.36	0.74	1.0000 
	4	1	-25	115	116	215	-2.42	1	1.0000 
	-1	-4	-25	185	165	307	-2.5	0.81	1.0000 
	-4	1	-25	15	98	74	1.4	3.03	1.0000 
	4	-1	-25	32	113	108	1.71	2.81	1.0000 
	4	-2	-25	215	135	166	1.15	0.43	1.0000 
	-2	-4	-25	3	115	0	-1.12	-0.43	1.0000 
	-4	2	-25	445	151	380	1.01	0.66	1.0000 
	4	-3	-25	20	106	60	1.4	-1.97	1.0000 
	-3	-4	-25	80	170	161	-0.16	-3.42	1.0000 
	4	-4	-25	8	103	16	0.71	-0.72	1.0000 
	-4	-4	-25	140	132	175	0.31	-2.45	1.0000 
	4	-5	-25	86	123	149	-1.71	1.24	1.0000 
	-5	-4	-25	42	122	73	1.39	0.19	1.0000 
	3	-5	-25	14	114	12	0.34	0.46	1.0000 
	-5	-3	-25	55	124	83	-0.14	-1.47	1.0000 
	-5	-2	-25	41	115	78	-1.48	-0.7	1.0000 
	2	-5	-25	8	113	-14	1.55	-1.07	1.0000 
	1	-5	-25	1	117	-66	0.59	-0.06	1.0000 
	5	1	-25	3	73	-2	-0.91	0.55	1.0000 
	-5	-1	-25	62	114	93	-1.07	0.75	1.0000 
	-1	-5	-25	3	96	-172	-0.87	0.74	1.0000 
	-5	1	-25	83	118	109	0.76	0.74	1.0000 
	5	-1	-25	39	102	56	0.77	0.65	1.0000 
	5	-2	-25	90	102	154	1.54	-1.41	1.0000 
	-2	-5	-25	35	159	67	-1.41	-0.61	1.0000 
	5	-3	-25	1	79	-111	0.18	-0.49	1.0000 
	-3	-5	-25	3	179	-31	-0.09	-1.14	1.0000 
	-4	-5	-25	30	182	57	1.36	0.44	1.0000 
	5	-4	-25	9	85	-17	-1.7	0.96	1.0000 
	5	-5	-25	5	100	-99	-0.92	-1.26	1.0000 
	-5	-5	-25	181	161	213	0.76	0.27	1.0000 
	5	-6	-25	1	84	-104	-0.76	0.09	1.0000 
	-6	-5	-25	63	169	89	1	-0.05	1.0000 
	4	-6	-25	125	153	78	-1.95	3.01	1.0000 
	-6	-4	-25	550	238	469	1.44	1.43	1.0000 
	3	-6	-25	335	178	339	-0.12	1.55	1.0000 
	-6	-3	-25	512	178	503	-0.14	-0.08	1.0000 
	2	-6	-25	405	210	383	-0.34	-1.31	1.0000 
	-6	-2	-25	369	158	362	0.09	-1.46	1.0000 
	6	1	-25	54	76	63	0.38	0.04	1.0000 
	-6	-1	-25	771	250	787	0.18	0.14	1.0000 
	1	-6	-25	388	246	418	-0.47	-1.47	1.0000 
	-1	-6	-25	426	202	461	0.52	0.4	1.0000 
	6	-1	-25	301	139	319	-0.34	-1.24	1.0000 
	6	-2	-25	476	141	457	-0.26	-1.31	1.0000 
	-2	-6	-25	201	178	193	0.13	-1.32	1.0000 
	-3	-6	-25	861	271	861	-0.04	-0.39	1.0000 
	6	-3	-25	613	196	622	-0.15	1.44	1.0000 
	6	-4	-25	230	131	177	-1.85	3.02	1.0000 
	-4	-6	-25	460	206	388	1.49	1.71	1.0000 
	-5	-6	-25	72	172	104	1.07	0.45	1.0000 
	6	-5	-25	1	101	-49	-0.65	-0.09	1.0000 
	6	-6	-25	14	93	24	-0.02	-0.84	1.0000 
	-6	-6	-25	3	158	-63	0.89	-0.79	1.0000 
	5	-7	-25	47	105	97	-0.44	2.13	1.0000 
	-7	-5	-25	1	154	-112	0.47	-0.48	1.0000 
	-7	-4	-25	302	200	266	-0.65	-0.91	1.0000 
	4	-7	-25	345	178	328	0.58	1.02	1.0000 
	-7	-3	-25	900	273	959	-0.61	-0.36	1.0000 
	3	-7	-25	666	249	732	0.6	-1.29	1.0000 
	2	-7	-25	211	176	242	-0.61	-0.41	1.0000 
	1	-7	-25	16	130	-26	-2.01	1.71	1.0000 
	-1	-7	-25	464	222	331	2.27	-1.63	1.0000 
	7	-1	-25	391	137	305	-1.93	1.29	1.0000 
	-2	-7	-25	52	178	75	0.65	-1.29	1.0000 
	7	-2	-25	431	162	477	-0.69	-0.19	1.0000 
	-3	-7	-25	487	233	530	-0.53	-0.71	1.0000 
	7	-3	-25	516	189	550	0.39	-0.65	1.0000 
	7	-4	-25	581	200	566	0.61	1.3	1.0000 
	-4	-7	-25	281	204	244	-0.72	-0.57	1.0000 
	-5	-7	-25	210	220	240	0.55	0.45	1.0000 
	7	-5	-25	56	97	108	-0.3	2.13	1.0000 
	-6	-7	-25	5	172	-51	1.49	0.16	1.0000 
	3	-8	-25	322	204	357	-0.44	-0.96	1.0000 
	8	2	-25	17	135	17	0.03	-0.4	1.0000 
	2	-8	-25	124	143	135	0.54	2.21	1.0000 
	1	-8	-25	340	204	402	-1.06	2.03	1.0000 
	8	1	-25	141	126	192	1.09	-1.5	1.0000 
	-1	-8	-25	201	191	258	1.04	-1.44	1.0000 
	8	-1	-25	506	177	590	-1.15	1.98	1.0000 
	8	-2	-25	679	200	722	0.52	2.47	1.0000 
	-2	-8	-25	44	168	45	0	-0.42	1.0000 
	8	-3	-25	564	186	613	-0.53	-0.75	1.0000 
	-3	-8	-25	169	196	215	0.92	-0.97	1.0000 
	-4	-8	-25	190	201	283	-0.73	-1.92	1.0000 
	8	-4	-25	7	100	54	0.76	-3.03	1.0000 
	-5	-8	-25	209	171	267	-1.26	0.05	1.0000 
	9	3	-25	339	168	323	0.38	-0.43	1.0000 
	9	2	-25	99	87	55	-1.66	-0.39	1.0000 
	2	-9	-25	359	201	313	1.75	2.1	1.0000 
	1	-9	-25	121	151	172	1.41	0.17	1.0000 
	9	1	-25	130	127	178	-1.27	0.21	1.0000 
	9	-1	-25	26	111	50	1.3	0.12	1.0000 
	-1	-9	-25	236	166	304	-1.39	0.05	1.0000 
	-2	-9	-25	129	148	80	-1.58	-0.29	1.0000 
	9	-2	-25	159	132	121	1.84	2.11	1.0000 
	-3	-9	-25	73	153	65	0.35	-0.2	1.0000 
	9	-3	-25	466	206	476	0.19	0.21	1.0000 
	-4	-9	25	377	155	488	1.82	0.54	1.0000 
	10	1	-25	1	133	-2	0.36	0.52	1.0000 
	10	-1	-25	34	98	32	-0.14	0.46	1.0000 
	-2	-10	-25	0	94	-66	-0.17	0.05	1.0000 
	0	0	-26	15503	903	15890	-1.1	1.09	1.0000 
	0	-1	-26	7978	604	8172	0.7	0.26	1.0000 
	-1	0	-26	7611	582	7791	0.69	-0.02	1.0000 
	0	1	-26	8073	587	8267	0.72	-0.02	1.0000 
	1	0	-26	7676	584	7882	0.76	0.21	1.0000 
	1	-1	-26	3584	410	3478	0.64	-0.41	1.0000 
	1	1	-26	4070	381	3920	0.73	0.71	1.0000 
	-1	1	-26	4287	390	4172	0.64	-0.45	1.0000 
	-1	-1	-26	3893	435	3749	0.73	0.56	1.0000 
	-2	-1	-26	2143	334	2153	0.03	0.56	1.0000 
	-1	2	-26	2294	318	2312	0.13	-0.22	1.0000 
	2	1	-26	1856	301	1864	-0.01	0.86	1.0000 
	1	-2	-26	1443	298	1450	0.06	0.01	1.0000 
	0	-2	-26	2972	376	2788	1.14	0.16	1.0000 
	2	0	-26	3305	373	3124	1.04	0.5	1.0000 
	0	2	-26	3000	342	2821	1.08	0.65	1.0000 
	-2	0	-26	3231	390	3034	1.16	0.34	1.0000 
	-1	-2	-26	1440	290	1455	0.09	0.59	1.0000 
	1	2	-26	1404	253	1401	-0.08	0.75	1.0000 
	-2	1	-26	1987	312	1991	0.03	-0.07	1.0000 
	2	-1	-26	1523	291	1537	0.13	-0.15	1.0000 
	-2	2	-26	1424	266	1405	0.26	-1.57	1.0000 
	2	-2	-26	1545	299	1524	0.27	-1.49	1.0000 
	-2	-2	-26	1168	268	1104	0.62	0.97	1.0000 
	2	-3	-26	72	131	125	1.53	-1.02	1.0000 
	-3	-2	-26	0	104	6	1.4	0.26	1.0000 
	-3	-1	-26	416	188	466	0.75	0.33	1.0000 
	1	-3	-26	136	147	135	-0.03	-0.03	1.0000 
	3	1	-26	77	113	99	0.73	0.3	1.0000 
	0	-3	-26	125	141	125	-0.13	1.09	1.0000 
	-3	0	-26	251	144	248	-0.07	1.47	1.0000 
	3	0	-26	288	135	286	-0.08	1.43	1.0000 
	-1	-3	-26	169	155	199	0.73	0.19	1.0000 
	3	-1	-26	395	164	394	-0.01	-0.08	1.0000 
	-3	1	-26	93	105	90	-0.09	-0.13	1.0000 
	-3	2	-26	183	128	266	1.5	-1.23	1.0000 
	-2	-3	-26	67	108	107	1.47	0.69	1.0000 
	3	-2	-26	47	124	95	1.59	-1.21	1.0000 
	3	-3	-26	64	124	70	0.59	2.36	1.0000 
	-3	-3	-26	0	85	-142	0.28	0.01	1.0000 
	-3	3	-26	351	122	387	0.59	2.43	1.0000 
	3	-4	-26	65	111	55	-0.82	1.69	1.0000 
	-4	-3	-26	185	100	150	-0.94	0.06	1.0000 
	2	-4	-26	843	270	936	0.99	0.57	1.0000 
	-4	-2	-26	468	193	515	0.56	1.36	1.0000 
	1	-4	-26	4807	480	4652	0.79	-0.46	1.0000 
	-4	-1	-26	4578	444	4330	1.26	-0.19	1.0000 
	4	1	-26	4823	405	4547	1.38	-0.36	1.0000 
	0	-4	-26	7247	616	7300	0.24	-0.45	1.0000 
	4	0	-26	7278	560	7332	0.26	-0.64	1.0000 
	-4	0	-26	7769	607	7834	0.29	-0.58	1.0000 
	4	-1	-26	4239	426	4121	0.64	-0.37	1.0000 
	-1	-4	-26	4825	476	4592	1.15	-0.14	1.0000 
	-4	1	-26	4697	438	4565	0.68	-0.32	1.0000 
	4	-2	-26	910	252	994	0.88	0.39	1.0000 
	-4	2	-26	335	154	387	0.89	0.21	1.0000 
	-2	-4	-26	451	208	491	0.48	1.32	1.0000 
	-3	-4	-26	44	125	30	-0.87	0.51	1.0000 
	4	-3	-26	246	144	231	-0.85	1.59	1.0000 
	4	-4	-26	1908	356	1980	-0.52	-0.21	1.0000 
	-4	-4	-26	2182	385	2286	-0.66	-0.74	1.0000 
	4	-5	-26	3557	480	3627	0.5	-1.27	1.0000 
	-5	-4	-26	3460	473	3498	0.2	0.16	1.0000 
	3	-5	-26	491	208	444	0.76	-0.16	1.0000 
	-5	-3	-26	347	152	313	0.61	0.25	1.0000 
	2	-5	-26	418	161	401	0.16	1.93	1.0000 
	-5	-2	-26	536	168	512	0.3	0.39	1.0000 
	-5	-1	-26	3612	446	3494	-0.59	-0.81	1.0000 
	1	-5	-26	3643	471	3595	-0.29	0.24	1.0000 
	5	1	-26	3539	347	3450	-0.43	-0.76	1.0000 
	5	0	-26	5962	502	6130	-0.48	-2.01	1.0000 
	-5	0	-26	5654	515	5803	-0.43	-1.95	1.0000 
	0	-5	-26	5658	540	5740	-0.19	-1.45	1.0000 
	5	-1	-26	4291	423	4229	-0.33	0.11	1.0000 
	-5	1	-26	4481	436	4401	-0.44	0.3	1.0000 
	-1	-5	-26	4261	495	4134	-0.6	-0.59	1.0000 
	5	-2	-26	317	123	300	0.18	1.8	1.0000 
	-2	-5	-26	455	205	443	0.17	0.19	1.0000 
	5	-3	-26	78	97	63	0.65	-0.31	1.0000 
	-3	-5	-26	421	234	378	0.67	0.49	1.0000 
	-4	-5	-26	2829	473	2874	0.26	0.2	1.0000 
	5	-4	-26	3338	452	3417	0.56	-1.09	1.0000 
	5	-5	-26	5811	554	5758	0.27	-0.4	1.0000 
	-5	-5	-26	6274	617	6348	-0.29	-0.25	1.0000 
	5	-6	-26	4434	517	4167	-1.34	-0.26	1.0000 
	-6	-5	-26	4180	529	3863	-1.61	-0.77	1.0000 
	4	-6	-26	2648	447	2863	-1.4	0.33	1.0000 
	-6	-4	-26	2826	449	3021	-1.24	0.36	1.0000 
	-6	-3	-26	565	214	586	0.28	0.03	1.0000 
	3	-6	-26	212	174	228	0.37	-0.11	1.0000 
	-6	-2	-26	462	177	451	-0.1	-1.46	1.0000 
	2	-6	-26	167	161	159	-0.19	-0.18	1.0000 
	-6	-1	-26	2452	396	2504	-0.32	-0.33	1.0000 
	1	-6	-26	2948	457	3015	-0.38	-0.34	1.0000 
	6	0	-26	4085	394	4074	-0.04	-0.16	1.0000 
	0	-6	-26	3479	479	3489	0.03	0.19	1.0000 
	6	-1	-26	3609	430	3679	-0.32	-0.61	1.0000 
	-1	-6	-26	2748	442	2808	-0.37	-0.14	1.0000 
	6	-2	-26	0	69	-31	-0.19	0.13	1.0000 
	-2	-6	-26	290	178	282	-0.07	-1.48	1.0000 
	-3	-6	-26	667	270	698	0.4	-0.08	1.0000 
	6	-3	-26	189	114	201	0.28	0.03	1.0000 
	6	-4	-26	2654	431	2870	-1.42	0.45	1.0000 
	-4	-6	-26	2035	433	2206	-1.25	0.11	1.0000 
	-5	-6	-26	4082	536	3743	-1.74	-0.84	1.0000 
	6	-5	-26	4582	524	4334	-1.24	-0.02	1.0000 
	-6	-6	-26	1629	328	1479	1.23	0.44	1.0000 
	4	-7	-26	441	176	398	-0.71	0.06	1.0000 
	-7	-4	-26	98	144	77	-0.73	-0.1	1.0000 
	-7	-3	-26	261	149	260	0.02	0.01	1.0000 
	3	-7	-26	5	130	-17	0.03	-1.52	1.0000 
	2	-7	-26	283	200	328	-0.67	-1.18	1.0000 
	1	-7	-26	1020	299	1031	0.1	0.22	1.0000 
	0	-7	-26	630	244	625	-0.01	1.14	1.0000 
	7	0	-26	936	200	911	0.19	1.43	1.0000 
	7	-1	-26	1283	264	1297	0.12	0.2	1.0000 
	-1	-7	-26	1209	320	1166	-0.5	0.9	1.0000 
	-2	-7	-26	88	174	112	-0.78	-0.45	1.0000 
	7	-2	-26	156	94	191	-0.76	-0.94	1.0000 
	-3	-7	-26	0	144	-134	0.23	-0.04	1.0000 
	7	-3	-26	164	110	187	-0.03	-1.41	1.0000 
	-4	-7	-26	649	261	595	-0.72	0.01	1.0000 
	7	-4	-26	420	156	375	-0.76	0.14	1.0000 
	-5	-7	-26	1237	363	1415	-1.6	-0.44	1.0000 
	2	-8	-26	2	119	-67	-0.8	0.59	1.0000 
	1	-8	-26	134	155	212	-0.53	1.97	1.0000 
	8	0	-26	53	87	54	-0.25	1.51	1.0000 
	0	-8	-26	332	175	343	-0.26	1.42	1.0000 
	-1	-8	-26	37	153	77	-1.09	1.59	1.0000 
	8	-1	-26	11	76	41	-0.45	2.09	1.0000 
	8	-2	-26	3	107	-38	-0.66	0.84	1.0000 
	-2	-8	-26	109	141	86	-0.78	0.48	1.0000 
	-3	-8	-26	550	235	528	0.46	-1.22	1.0000 
	8	-3	-26	4	84	-32	0.49	-1.31	1.0000 
	9	2	-26	442	173	470	0.42	0.2	1.0000 
	9	-1	-26	1347	300	1358	-0.19	0.93	1.0000 
	9	-2	-26	180	110	185	0.05	0.72	1.0000 
	-1	-1	-27	505	193	481	0.46	-0.65	1.0000 
	-1	1	-27	696	183	676	-0.29	-0.26	1.0000 
	1	-1	-27	562	181	552	-0.14	0.01	1.0000 
	1	1	-27	616	179	586	0.47	-0.48	1.0000 
	2	1	-27	1417	267	1404	-0.21	0.84	1.0000 
	-2	-1	-27	1938	323	1913	-0.3	0.9	1.0000 
	-1	2	-27	1868	299	1881	-0.21	-1.43	1.0000 
	1	-2	-27	1397	298	1407	-0.2	-1.3	1.0000 
	-2	1	-27	1626	298	1631	-0.15	-1.36	1.0000 
	-1	-2	-27	1627	311	1604	-0.27	0.76	1.0000 
	2	-1	-27	2255	346	2269	-0.2	-1.4	1.0000 
	-2	-2	-27	4893	492	5142	-1.23	0.73	1.0000 
	2	-2	-27	5550	515	5772	1.03	0.51	1.0000 
	-2	2	-27	5275	462	5536	1.25	0.72	1.0000 
	2	-3	-27	6017	536	6031	-0.22	2.41	1.0000 
	-3	-2	-27	4919	498	5028	0.49	-0.25	1.0000 
	1	-3	-27	1487	312	1569	0.67	0.34	1.0000 
	3	1	-27	1306	268	1401	-0.9	-0.38	1.0000 
	-3	-1	-27	1732	350	1855	-1.02	-0.42	1.0000 
	-1	-3	-27	1580	328	1683	-0.89	-0.28	1.0000 
	3	-1	-27	1548	312	1640	0.73	0.42	1.0000 
	-3	1	-27	1060	258	1126	0.61	0.51	1.0000 
	3	-2	-27	5180	491	5200	-0.25	2.12	1.0000 
	-3	2	-27	5305	466	5307	-0.18	2.42	1.0000 
	-2	-3	-27	5599	521	5700	0.4	-0.5	1.0000 
	3	-3	-27	6412	535	5949	-2.13	1.33	1.0000 
	-3	-3	-27	5803	516	5320	2.22	0.44	1.0000 
	3	-4	-27	2154	376	2222	-0.41	-0.68	1.0000 
	-4	-3	-27	2213	399	2383	1.09	-0.88	1.0000 
	-4	-2	-27	2262	370	2245	0.19	-0.68	1.0000 
	2	-4	-27	2162	380	2210	0.37	0.29	1.0000 
	-4	-1	-27	419	156	337	-1.32	-1.02	1.0000 
	1	-4	-27	451	189	393	1.17	1.16	1.0000 
	4	1	-27	422	146	344	-1.28	-0.66	1.0000 
	4	-1	-27	587	173	521	1.3	1.65	1.0000 
	-1	-4	-27	604	196	512	-1.28	-0.26	1.0000 
	-4	1	-27	596	159	539	1.15	1.63	1.0000 
	-2	-4	-27	2383	389	2385	0.07	-0.78	1.0000 
	-4	2	-27	2365	344	2399	0.27	0.43	1.0000 
	4	-2	-27	2296	357	2332	0.27	0.18	1.0000 
	4	-3	-27	2253	372	2341	-0.44	-1.36	1.0000 
	-3	-4	-27	2130	379	2320	1.16	-1.43	1.0000 
	4	-4	-27	853	229	760	-1.04	-0.61	1.0000 
	-4	-4	-27	446	187	392	0.87	-0.18	1.0000 
	-5	-4	-27	70	141	93	0.41	1.31	1.0000 
	4	-5	-27	117	122	140	-0.63	-0.43	1.0000 
	-5	-3	-27	245	168	329	-0.88	-2.38	1.0000 
	3	-5	-27	41	114	68	1.23	0.21	1.0000 
	-5	-2	-27	405	158	373	-0.55	-0.44	1.0000 
	2	-5	-27	3	94	-104	0.73	-0.93	1.0000 
	1	-5	-27	32	95	56	-1.05	-0.79	1.0000 
	-5	-1	-27	103	99	138	0.51	1.16	1.0000 
	5	-1	-27	81	93	111	-1	-0.28	1.0000 
	-5	1	-27	9	84	20	-1.01	-0.35	1.0000 
	-1	-5	-27	8	81	-112	0.39	1.86	1.0000 
	5	-2	-27	356	118	319	0.7	-0.73	1.0000 
	-2	-5	-27	157	131	137	-0.55	-0.19	1.0000 
	5	-3	-27	131	114	177	1.21	-0.36	1.0000 
	-3	-5	-27	213	172	289	-0.67	-2.6	1.0000 
	5	-4	-27	147	130	178	-0.65	-0.89	1.0000 
	-4	-5	-27	2	176	4	0.61	1.24	1.0000 
	-5	-5	-27	25	166	-44	0.85	3.24	1.0000 
	5	-5	-27	357	145	390	-0.45	-1.97	1.0000 
	4	-6	-27	329	160	311	0.27	0.69	1.0000 
	-6	-4	-27	834	233	799	-0.35	1.07	1.0000 
	3	-6	-27	1138	324	1234	0.84	0.83	1.0000 
	-6	-3	-27	1123	319	1225	-1.06	-0.68	1.0000 
	-6	-2	-27	283	154	291	0.21	-0.46	1.0000 
	2	-6	-27	346	175	379	-0.64	-0.47	1.0000 
	-6	-1	-27	756	199	582	2.26	-0.08	1.0000 
	1	-6	-27	384	169	260	-2.34	-0.12	1.0000 
	6	-1	-27	490	147	346	-2.4	-0.23	1.0000 
	-1	-6	-27	332	194	219	2.3	-0.18	1.0000 
	-2	-6	-27	584	245	600	0.24	-0.1	1.0000 
	6	-2	-27	577	185	619	-0.62	-0.34	1.0000 
	-3	-6	-27	820	300	911	-1.09	-0.66	1.0000 
	6	-3	-27	1192	282	1278	0.73	0.78	1.0000 
	-4	-6	-27	499	226	477	-0.27	0.82	1.0000 
	6	-4	-27	639	176	614	0.29	0.47	1.0000 
	-5	-6	-27	185	169	206	-0.26	1.07	1.0000 
	6	-5	-27	1	94	-95	0.39	-0.5	1.0000 
	3	-7	-27	2528	428	2439	0.66	-0.46	1.0000 
	-7	-3	-27	2524	428	2473	-0.24	0.99	1.0000 
	2	-7	-27	1973	386	1951	-0.19	0.19	1.0000 
	1	-7	-27	1414	337	1356	0.42	1.57	1.0000 
	-1	-7	-27	1358	342	1342	-0.45	-1.99	1.0000 
	7	-1	-27	1226	246	1157	0.57	1.39	1.0000 
	7	-2	-27	1962	329	1938	-0.23	0.36	1.0000 
	-2	-7	-27	2235	419	2252	-0.14	-0.15	1.0000 
	7	-3	-27	1981	347	1924	0.46	-0.21	1.0000 
	-3	-7	-27	2526	447	2454	-0.39	0.93	1.0000 
	7	-4	-27	1012	269	1112	0.98	0.39	1.0000 
	8	-1	-27	997	249	1022	0.22	0.39	1.0000 
	8	-2	-27	2637	411	2756	-0.81	0.37	1.0000 
	9	-1	-27	665	197	835	-2.08	-0.12	1.0000 
	0	0	-28	2278	353	2435	0.99	1.1	1.0000 
	-1	0	-28	355	170	376	-0.38	0.21	1.0000 
	0	1	-28	688	206	717	-0.39	0.18	1.0000 
	1	0	-28	547	198	566	-0.29	0.25	1.0000 
	0	-1	-28	344	152	360	-0.32	0.3	1.0000 
	-1	1	-28	264	150	317	1.13	-0.8	1.0000 
	1	1	-28	401	153	460	0.82	0.86	1.0000 
	1	-1	-28	46	128	70	1.25	-0.95	1.0000 
	-1	-1	-28	63	115	90	0.95	0.6	1.0000 
	2	1	-28	336	134	291	0.9	-0.85	1.0000 
	-2	-1	-28	285	147	247	0.84	-0.95	1.0000 
	1	-2	-28	491	161	434	0.94	-0.72	1.0000 
	-1	2	-28	143	78	114	0.89	-0.73	1.0000 
	2	0	-28	595	185	502	-1.29	-1.17	1.0000 
	-2	0	-28	696	212	593	-1.33	-1.25	1.0000 
	0	-2	-28	689	208	585	-1.35	-1.42	1.0000 
	2	-1	-28	287	159	245	0.89	-0.71	1.0000 
	-2	1	-28	325	150	284	0.83	-0.75	1.0000 
	-1	-2	-28	498	171	445	0.91	-1.12	1.0000 
	-2	2	-28	871	245	1072	2.06	1.79	1.0000 
	-2	-2	-28	558	204	681	1.59	-2.5	1.0000 
	2	-2	-28	789	257	988	2.11	2.12	1.0000 
	2	-3	-28	161	126	199	-0.47	2.26	1.0000 
	-3	-2	-28	189	153	209	-0.32	-1.48	1.0000 
	1	-3	-28	27	118	44	-1	0.11	1.0000 
	3	1	-28	164	119	249	0.04	-2.64	1.0000 
	-3	-1	-28	36	111	65	-0.42	-1.8	1.0000 
	0	-3	-28	72	143	94	0.82	-1.66	1.0000 
	3	0	-28	91	134	118	0.9	-1.48	1.0000 
	-3	0	-28	266	118	310	0.82	-1.52	1.0000 
	3	-1	-28	179	128	223	-1.09	0.45	1.0000 
	-1	-3	-28	14	95	34	-0.11	-2.23	1.0000 
	-3	1	-28	200	120	243	-0.89	-0.36	1.0000 
	-3	2	-28	112	113	141	-0.46	2.15	1.0000 
	3	-2	-28	136	112	170	-0.49	2.14	1.0000 
	-2	-3	-28	127	114	137	-0.18	-1.42	1.0000 
	-3	-3	-28	62	105	93	1.16	0.34	1.0000 
	3	-3	-28	286	151	383	0.99	2.24	1.0000 
	-4	-3	-28	94	116	91	0.08	0.74	1.0000 
	3	-4	-28	59	119	56	0.13	0.03	1.0000 
	-4	-2	-28	13	105	21	-0.82	0.9	1.0000 
	2	-4	-28	168	169	195	-0.68	0.21	1.0000 
	1	-4	-28	1701	341	1696	-0.11	0.84	1.0000 
	-4	-1	-28	1611	320	1608	0.02	-0.86	1.0000 
	0	-4	-28	2599	385	2346	1.72	-0.23	1.0000 
	4	0	-28	3310	380	2990	1.93	-0.28	1.0000 
	-4	0	-28	2933	386	2675	1.64	-0.2	1.0000 
	-1	-4	-28	1240	308	1250	0.15	-0.88	1.0000 
	4	-1	-28	2384	351	2389	-0.07	1.1	1.0000 
	-4	1	-28	1443	272	1448	-0.02	0.77	1.0000 
	4	-2	-28	87	88	107	-0.7	0.36	1.0000 
	-4	2	-28	107	106	130	-0.72	0.38	1.0000 
	-2	-4	-28	219	164	256	-0.82	1.09	1.0000 
	4	-3	-28	0	95	-4	0.09	-0.27	1.0000 
	-3	-4	-28	2	97	-14	0.03	0.91	1.0000 
	-4	-4	-28	1	131	-109	-0.31	-0.57	1.0000 
	4	-4	-28	299	146	258	-0.77	-0.45	1.0000 
	4	-5	-28	565	221	654	-1.26	0.45	1.0000 
	-5	-4	-28	595	245	677	-1.09	-0.07	1.0000 
	3	-5	-28	202	134	185	-0.4	-1.22	1.0000 
	-5	-3	-28	219	150	199	-0.56	0.53	1.0000 
	-5	-2	-28	200	158	261	1.22	0.59	1.0000 
	2	-5	-28	12	93	-284	1.12	-1.98	1.0000 
	-5	-1	-28	953	252	922	0.36	-0.15	1.0000 
	1	-5	-28	863	248	817	0.5	0.29	1.0000 
	5	0	-28	937	201	841	-1.23	0.92	1.0000 
	0	-5	-28	1381	321	1273	-1.28	1.6	1.0000 
	-5	0	-28	1052	233	927	-1.51	1.1	1.0000 
	-5	1	-28	408	167	387	0.31	0.45	1.0000 
	5	-1	-28	724	171	676	0.62	-0.15	1.0000 
	-1	-5	-28	521	230	503	0.23	0.26	1.0000 
	-2	-5	-28	38	130	63	1.17	0.2	1.0000 
	5	-2	-28	10	90	-3	1.1	-1.74	1.0000 
	5	-3	-28	47	89	35	-0.52	-1.11	1.0000 
	-3	-5	-28	1	102	-51	-0.48	0.59	1.0000 
	5	-4	-28	708	207	812	-1.3	0.39	1.0000 
	-4	-5	-28	672	256	764	-1.17	0.19	1.0000 
	5	-5	-28	1488	313	1428	-0.64	1.07	1.0000 
	3	-6	-28	359	191	367	-0.12	-0.12	1.0000 
	-6	-3	-28	495	180	481	0.24	-0.36	1.0000 
	2	-6	-28	244	192	291	0.5	-1.09	1.0000 
	-6	-2	-28	118	129	156	0.84	-0.81	1.0000 
	-6	-1	-28	417	145	384	-0.51	-0.3	1.0000 
	1	-6	-28	98	131	86	-0.37	-0.35	1.0000 
	0	-6	-28	345	229	401	-1.08	0.79	1.0000 
	6	0	-28	487	154	557	-1.09	0.47	1.0000 
	-1	-6	-28	306	192	275	-0.59	-0.23	1.0000 
	6	-1	-28	65	89	55	-0.32	-0.63	1.0000 
	6	-2	-28	18	99	34	0.51	-1.4	1.0000 
	-2	-6	-28	343	221	413	0.85	-1.02	1.0000 
	6	-3	-28	65	87	69	-0.16	-0.11	1.0000 
	-3	-6	-28	640	270	620	0.28	-0.24	1.0000 
	6	-4	-28	792	174	713	-0.99	0.24	1.0000 
	0	-7	-28	236	143	285	1.02	-1.4	1.0000 
	7	-1	-28	277	109	372	-1.68	-0.79	1.0000 
	-1	-7	-28	63	164	112	-1.79	0.28	1.0000 
	7	-2	-28	34	105	81	-1.89	0.94	1.0000 
	7	-3	-28	56	122	73	0.31	1.19	1.0000 
	8	-1	-28	157	132	234	-1.68	-0.81	1.0000 
	1	-1	-29	803	191	622	2.16	1.57	1.0000 
	-1	1	-29	1139	220	936	2.01	1.7	1.0000 
	-1	-1	-29	954	209	794	-1.93	-0.84	1.0000 
	1	1	-29	895	199	745	-1.83	-0.58	1.0000 
	1	-2	-29	2494	386	2529	0.21	0.28	1.0000 
	-2	-1	-29	2613	386	2729	-0.85	-1.11	1.0000 
	2	1	-29	2227	335	2315	-0.69	-0.71	1.0000 
	2	-1	-29	2175	349	2199	0.12	0.45	1.0000 
	-1	-2	-29	1856	337	1934	-0.7	-1.06	1.0000 
	-2	1	-29	2105	336	2121	0.08	0.35	1.0000 
	-2	-2	-29	7458	577	6911	-2	-1.93	1.0000 
	2	-2	-29	6252	552	6216	0.26	0.94	1.0000 
	-2	2	-29	6232	505	6226	0.16	1.15	1.0000 
	2	-3	-29	7096	625	7266	0.61	0.63	1.0000 
	-3	-2	-29	7210	643	7595	-1.53	-0.35	1.0000 
	-3	-1	-29	2549	402	2586	0.19	0.51	1.0000 
	1	-3	-29	2507	401	2641	-1	-1.56	1.0000 
	-3	1	-29	2697	373	2834	-1	-1.6	1.0000 
	3	-1	-29	2370	371	2493	-0.95	-1.43	1.0000 
	-1	-3	-29	2285	382	2336	0.3	0.57	1.0000 
	-3	2	-29	7150	566	7283	0.47	0.59	1.0000 
	-2	-3	-29	7444	635	7794	-1.37	-0.35	1.0000 
	3	-2	-29	7423	613	7596	0.61	0.6	1.0000 
	-3	-3	-29	8245	661	7974	-0.92	-1.06	1.0000 
	3	-3	-29	7822	636	7692	0.73	2.15	1.0000 
	-4	-3	-29	2888	430	2760	0.81	-0.04	1.0000 
	3	-4	-29	3384	450	3267	-0.59	1.16	1.0000 
	2	-4	-29	2678	429	2795	-0.79	0.45	1.0000 
	-4	-2	-29	2674	428	2885	1.4	0.66	1.0000 
	-4	-1	-29	633	212	610	0.29	0.14	1.0000 
	1	-4	-29	964	253	971	-0.13	-1.24	1.0000 
	-1	-4	-29	779	224	749	0.3	0.57	1.0000 
	-4	1	-29	838	233	842	-0.12	-1.06	1.0000 
	4	-1	-29	641	182	650	-0.02	-0.94	1.0000 
	-2	-4	-29	2445	417	2638	1.35	0.71	1.0000 
	-4	2	-29	3544	428	3685	-0.82	0.42	1.0000 
	4	-2	-29	2409	386	2506	-0.7	0.6	1.0000 
	-3	-4	-29	2882	435	2760	0.8	-0.32	1.0000 
	4	-3	-29	3222	433	3107	-0.61	0.87	1.0000 
	4	-4	-29	1346	287	1235	1.09	-0.5	1.0000 
	-4	-4	-29	1981	369	1871	-0.89	-0.44	1.0000 
	-5	-3	-29	3	109	-32	1.11	0.29	1.0000 
	3	-5	-29	387	181	436	-0.76	0.45	1.0000 
	-5	-2	-29	356	152	256	1.92	-0.16	1.0000 
	2	-5	-29	5	146	-30	-1.43	0.15	1.0000 
	-5	-1	-29	62	128	54	0.4	-0.42	1.0000 
	1	-5	-29	0	98	-145	-0.25	-0.39	1.0000 
	-5	1	-29	0	72	-47	-0.26	-0.36	1.0000 
	-1	-5	-29	0	73	-202	0.35	-0.25	1.0000 
	5	-1	-29	17	77	15	-0.18	-0.36	1.0000 
	-2	-5	-29	83	128	39	1.91	-0.18	1.0000 
	5	-2	-29	5	111	-15	-1.45	0.17	1.0000 
	-3	-5	-29	152	139	196	1.11	0.14	1.0000 
	5	-3	-29	16	86	26	-0.74	0.49	1.0000 
	5	-4	-29	178	129	232	1.26	0.08	1.0000 
	-6	-2	-29	1274	316	1296	-0.15	-0.36	1.0000 
	-6	-1	-29	750	236	806	0.69	-0.14	1.0000 
	1	-6	-29	397	198	454	-0.84	0.76	1.0000 
	6	-1	-29	804	196	881	-0.81	0.64	1.0000 
	-1	-6	-29	638	257	684	0.62	-0.27	1.0000 
	6	-2	-29	521	193	563	0.67	0.47	1.0000 
	6	-3	-29	1123	263	1050	0.72	0.23	1.0000 
	7	-1	-29	1862	337	1875	-0.04	1.16	1.0000 
	7	-2	-29	3678	470	3564	0.48	1.53	1.0000 
	0	0	-30	3	95	-9	-0.94	-0.51	1.0000 
	1	0	-30	138	85	168	-0.82	0.52	1.0000 
	0	1	-30	2	73	-1	-0.84	0.33	1.0000 
	-1	0	-30	230	140	273	-0.9	0.5	1.0000 
	0	-1	-30	213	121	251	-0.82	0.66	1.0000 
	1	-1	-30	265	153	233	-0.69	0.2	1.0000 
	-1	1	-30	349	124	308	-0.76	-0.07	1.0000 
	-1	-1	-30	28	111	17	-0.73	0.98	1.0000 
	1	1	-30	411	121	369	-0.8	0.96	1.0000 
	-2	-1	-30	43	105	60	0.79	-0.16	1.0000 
	1	-2	-30	0	84	-210	0.4	-0.05	1.0000 
	0	-2	-30	1	103	-40	-0.12	0.62	1.0000 
	-2	0	-30	153	105	162	-0.22	0.35	1.0000 
	2	0	-30	0	86	-78	-0.15	0.21	1.0000 
	-2	1	-30	0	85	-24	0.41	-0.16	1.0000 
	-1	-2	-30	1	115	-23	0.75	-0.31	1.0000 
	2	-1	-30	0	115	0	0.36	-0.17	1.0000 
	2	-2	-30	66	109	54	0.51	0.87	1.0000 
	-2	-2	-30	256	142	200	1.25	-0.61	1.0000 
	2	-3	-30	580	187	537	-0.82	1.73	1.0000 
	-3	-2	-30	541	139	495	-0.69	0.33	1.0000 
	-3	-1	-30	0	102	-32	-0.29	0.06	1.0000 
	1	-3	-30	17	116	15	0.15	0.53	1.0000 
	-3	0	-30	312	125	315	0.05	0.27	1.0000 
	3	0	-30	167	98	171	0.11	0.26	1.0000 
	0	-3	-30	0	109	-134	0.03	0.27	1.0000 
	3	-1	-30	254	152	249	0.16	0.63	1.0000 
	-3	1	-30	144	103	133	0.33	0.36	1.0000 
	-1	-3	-30	4	109	5	-0.21	-0.19	1.0000 
	3	-2	-30	10	107	-15	-0.9	1.94	1.0000 
	-2	-3	-30	403	144	360	-0.73	0.05	1.0000 
	-3	-3	-30	474	168	449	0.61	1.38	1.0000 
	3	-3	-30	40	116	27	0.76	0.72	1.0000 
	-4	-3	-30	16	104	44	1.46	1.36	1.0000 
	3	-4	-30	4	106	-126	1.33	-0.36	1.0000 
	2	-4	-30	175	151	283	-2.37	0.75	1.0000 
	-4	-2	-30	31	121	83	-2.37	0.22	1.0000 
	-4	-1	-30	156	111	223	-1.85	0.79	1.0000 
	1	-4	-30	11	107	-52	-1.69	1.48	1.0000 
	0	-4	-30	79	115	79	0.14	1.2	1.0000 
	-4	0	-30	191	118	189	0.23	1.16	1.0000 
	4	0	-30	6	86	-27	0.32	1.59	1.0000 
	-4	1	-30	62	100	103	-1.44	1.42	1.0000 
	4	-1	-30	12	85	-28	-1.67	1.66	1.0000 
	-1	-4	-30	8	95	-132	-1.69	0.74	1.0000 
	4	-2	-30	100	125	186	-2.36	0.95	1.0000 
	-2	-4	-30	253	151	374	-2.29	-0.01	1.0000 
	-4	2	-30	146	93	241	-2.26	0.84	1.0000 
	-3	-4	-30	54	120	98	1.48	1.07	1.0000 
	4	-4	-30	214	170	349	2.71	0.01	1.0000 
	-5	-2	-30	532	195	487	-0.72	0.97	1.0000 
	1	-5	-30	655	256	624	0.41	0.58	1.0000 
	-5	-1	-30	980	249	936	0.47	0.36	1.0000 
	0	-5	-30	799	252	869	0.8	0.32	1.0000 
	5	0	-30	692	173	765	0.88	0.53	1.0000 
	-5	0	-30	644	221	710	0.84	0.41	1.0000 
	-5	1	-30	571	167	535	0.53	0.77	1.0000 
	5	-1	-30	473	172	451	0.35	0.56	1.0000 
	-1	-5	-30	37	140	29	0.45	0.47	1.0000 
	5	-2	-30	541	184	510	-0.46	-0.44	1.0000 
	5	-3	-30	308	181	415	-1.88	0.11	1.0000 
	6	-1	-30	295	157	343	0.89	-0.08	1.0000 
	6	-2	-30	269	142	195	1.63	0	1.0000 
	7	-1	-30	296	120	337	-0.77	-0.19	1.0000 
	1	-1	-31	337	133	333	0.04	-1.31	1.0000 
	-1	-1	-31	687	210	745	-0.71	0.15	1.0000 
	-1	1	-31	615	203	622	0.19	-1.12	1.0000 
	-2	-1	-31	1295	280	1147	-1.4	-0.23	1.0000 
	1	-2	-31	1250	291	1178	0.62	-0.6	1.0000 
	-1	-2	-31	1101	216	974	-1.3	-0.18	1.0000 
	-2	1	-31	720	207	675	0.49	-0.67	1.0000 
	2	-1	-31	1227	270	1154	0.64	-0.56	1.0000 
	2	-2	-31	3798	440	3471	-1.79	-0.26	1.0000 
	-2	-2	-31	2492	402	2440	0.31	-0.28	1.0000 
	2	-3	-31	4114	499	4008	0.55	0.05	1.0000 
	-3	-2	-31	3254	447	3116	-0.8	0.2	1.0000 
	-3	-1	-31	866	253	962	-1.07	0.09	1.0000 
	1	-3	-31	1605	333	1763	1.37	0.75	1.0000 
	3	-1	-31	1217	274	1370	1.51	0.79	1.0000 
	-1	-3	-31	889	241	983	-1.07	0.36	1.0000 
	-3	1	-31	1635	313	1787	1.31	0.7	1.0000 
	3	-2	-31	4276	494	4155	0.61	0.17	1.0000 
	-2	-3	-31	4391	514	4242	-0.71	0.48	1.0000 
	3	-3	-31	4226	519	4240	0.07	0.05	1.0000 
	-3	-3	-31	4129	543	4281	-0.87	-0.75	1.0000 
	-4	-2	-31	1496	329	1370	1.14	-0.19	1.0000 
	1	-4	-31	95	143	146	-1.73	0.89	1.0000 
	-4	-1	-31	332	167	472	2.35	-0.14	1.0000 
	4	-1	-31	292	126	369	-1.51	0.65	1.0000 
	-1	-4	-31	217	150	328	2.28	-0.07	1.0000 
	-4	1	-31	241	136	315	-1.59	0.77	1.0000 
	4	-2	-31	1091	247	1026	-0.6	0.6	1.0000 
	-5	1	-31	88	117	179	-2.66	-0.06	1.0000 
	5	-1	-31	183	134	308	-2.68	-0.05	1.0000 
	5	-2	-31	96	124	215	-3.25	-0.09	1.0000 
	6	-1	-31	636	167	674	0.53	-0.4	1.0000 
	0	0	-32	1138	264	1284	-1.25	-1.23	1.0000 
	1	0	-32	1603	287	1568	-0.24	-0.6	1.0000 
	0	-1	-32	1085	265	1065	-0.17	-0.34	1.0000 
	-1	0	-32	988	224	964	-0.19	-0.72	1.0000 
	-1	-1	-32	1489	266	1547	-0.45	-0.6	1.0000 
	1	-1	-32	1164	283	1217	-0.48	-0.48	1.0000 
	-2	-1	-32	141	131	180	1.05	-0.37	1.0000 
	1	-2	-32	244	146	289	0.93	-0.02	1.0000 
	-2	0	-32	112	84	44	2.56	1.1	1.0000 
	0	-2	-32	21	118	-160	2.75	1.31	1.0000 
	2	0	-32	19	89	-129	2.73	0.96	1.0000 
	-1	-2	-32	286	143	347	1.17	-0.33	1.0000 
	2	-1	-32	82	96	106	0.84	-0.25	1.0000 
	-2	1	-32	252	131	297	0.92	-0.18	1.0000 
	2	-2	-32	73	101	127	-1.76	-1.94	1.0000 
	-2	-2	-32	13	108	26	-0.05	-1.61	1.0000 
	-3	-1	-32	271	151	366	1.74	0.35	1.0000 
	-3	0	-32	111	121	61	1.74	1.05	1.0000 
	0	-3	-32	508	151	395	1.77	1.22	1.0000 
	3	-1	-32	1	107	9	1.38	0.74	1.0000 
	-3	1	-32	149	100	206	1.3	0.73	1.0000 
	3	-2	-32	152	135	182	-0.79	0.1	1.0000 
	-4	0	-32	499	170	438	-0.91	-0.33	1.0000 
	-4	1	-32	130	111	132	-0.09	0.12	1.0000 
	4	-1	-32	109	119	106	0.02	0.35	1.0000 
	-1	-1	-33	234	106	221	-0.22	-1.2	1.0000 
	1	-1	-33	46	104	46	0.05	0.35	1.0000 
	2	-1	-33	367	157	371	0.06	0.03	1.0000 
	3	-1	-33	6	109	-175	1.5	0.66	1.0000 
	-3	1	-33	958	168	821	1.46	0.66	1.0000 
	0	0	-34	3426	439	3511	0.35	0.92	1.0000 

;
_shelx_hkl_checksum              73558

# SQUEEZE RESULTS (APPEND TO CIF)
loop_
_platon_squeeze_void_nr
_platon_squeeze_void_average_x
_platon_squeeze_void_average_y
_platon_squeeze_void_average_z
_platon_squeeze_void_volume
_platon_squeeze_void_count_electrons
1 0.000 0.000 -0.005 1624.0 140.6
_platon_squeeze_details          
;
;
