####################################################################### 
# 
# This file contains crystal structure data downloaded from the 
# Cambridge Structural Database (CSD) hosted by the Cambridge 
# Crystallographic Data Centre (CCDC).
# 
# Full information about CCDC data access policies and citation 
# guidelines are available at http://www.ccdc.cam.ac.uk/access/V1 
# 
# Audit and citation data items may have been added by the CCDC. 
# Please retain this information to preserve the provenance of 
# this file and to allow appropriate attribution of the data. 
# 
#######################################################################

data_3
_audit_block_doi                 10.5517/cc13mr8r
_database_code_depnum_ccdc_archive 'CCDC 1031874'
loop_
_citation_id
_citation_doi
_citation_year
1 10.1039/C4SC03985H 2015
_audit_update_record             
;
2014-10-31 deposited with the CCDC.	2021-12-15 downloaded from the CCDC.
;

_audit_creation_method           SHELXL-2013
_chemical_name_systematic        
;
 ?
;
_chemical_name_common            ?
_chemical_melting_point          ?
_chemical_formula_moiety         'C34 H32 N8 O5 Zn4'
_chemical_formula_sum            'C34 H32 N8 O5 Zn4'
_chemical_formula_weight         894.15

loop_
_atom_type_symbol
_atom_type_description
_atom_type_scat_dispersion_real
_atom_type_scat_dispersion_imag
_atom_type_scat_source
C C 0.0181 0.0091 'International Tables Vol C Tables 4.2.6.8 and 6.1.1.4'
H H 0.0000 0.0000 'International Tables Vol C Tables 4.2.6.8 and 6.1.1.4'
N N 0.0311 0.0180 'International Tables Vol C Tables 4.2.6.8 and 6.1.1.4'
O O 0.0492 0.0322 'International Tables Vol C Tables 4.2.6.8 and 6.1.1.4'
Zn Zn -1.5491 0.6778 'International Tables Vol C Tables 4.2.6.8 and 6.1.1.4'

_space_group_crystal_system      tetragonal
_space_group_IT_number           132
_space_group_name_H-M_alt        'P 42/m c m'
_space_group_name_Hall           '-P 4c 2c'

_shelx_space_group_comment       
;
The symmetry employed for this shelxl refinement is uniquely defined
by the following loop, which should always be used as a source of
symmetry information in preference to the above space-group names.
They are only intended as comments.
;

loop_
_space_group_symop_operation_xyz
'x, y, z'
'-x, -y, z'
'-y, x, z+1/2'
'y, -x, z+1/2'
'-x, y, -z+1/2'
'x, -y, -z+1/2'
'y, x, -z'
'-y, -x, -z'
'-x, -y, -z'
'x, y, -z'
'y, -x, -z-1/2'
'-y, x, -z-1/2'
'x, -y, z-1/2'
'-x, y, z-1/2'
'-y, -x, z'
'y, x, z'

_cell_length_a                   11.517(3)
_cell_length_b                   11.517(3)
_cell_length_c                   34.474(11)
_cell_angle_alpha                90
_cell_angle_beta                 90
_cell_angle_gamma                90
_cell_volume                     4573(2)
_cell_formula_units_Z            2
_cell_measurement_temperature    273(2)
_cell_measurement_reflns_used    ?
_cell_measurement_theta_min      ?
_cell_measurement_theta_max      ?

_exptl_crystal_description       block
_exptl_crystal_colour            colorless
_exptl_crystal_density_meas      ?
_exptl_crystal_density_method    'not measured'
_exptl_crystal_density_diffrn    0.649
_exptl_crystal_F_000             904
_exptl_transmission_factor_min   0.815
_exptl_transmission_factor_max   0.922
_exptl_crystal_size_max          0.150
_exptl_crystal_size_mid          0.150
_exptl_crystal_size_min          0.060
_exptl_absorpt_coefficient_mu    1.362
_shelx_estimated_absorpt_T_min   0.822
_shelx_estimated_absorpt_T_max   0.923
_exptl_absorpt_correction_type   Multi-scan
_exptl_absorpt_correction_T_min  ?
_exptl_absorpt_correction_T_max  ?
_exptl_absorpt_process_details   'REQAB; Jacobson, 1998'

_exptl_special_details           
;
 ?
;

_diffrn_ambient_temperature      273(2)
_diffrn_radiation_wavelength     1.54178
_diffrn_radiation_type           CuK\a
_diffrn_source                   'fine-focus sealed tube'
_diffrn_measurement_device_type  'XtaLAB P300DS'
_diffrn_measurement_method       '/w scan'
_diffrn_detector_area_resol_mean ?
_diffrn_reflns_number            13199
_diffrn_reflns_av_unetI/netI     0.0573
_diffrn_reflns_av_R_equivalents  0.0780
_diffrn_reflns_limit_h_min       -12
_diffrn_reflns_limit_h_max       12
_diffrn_reflns_limit_k_min       -12
_diffrn_reflns_limit_k_max       6
_diffrn_reflns_limit_l_min       -38
_diffrn_reflns_limit_l_max       32
_diffrn_reflns_theta_min         6.663
_diffrn_reflns_theta_max         59.966
_diffrn_reflns_theta_full        67.679
_diffrn_measured_fraction_theta_max 0.969
_diffrn_measured_fraction_theta_full 0.799
_diffrn_reflns_Laue_measured_fraction_max 0.969
_diffrn_reflns_Laue_measured_fraction_full 0.799
_diffrn_reflns_point_group_measured_fraction_max 0.969
_diffrn_reflns_point_group_measured_fraction_full 0.799
_reflns_number_total             1819
_reflns_number_gt                1633
_reflns_threshold_expression     'I > 2\s(I)'
_reflns_Friedel_coverage         0.000
_reflns_Friedel_fraction_max     .
_reflns_Friedel_fraction_full    .

_reflns_special_details          
;
 Reflections were merged by SHELXL according to the crystal
 class for the calculation of statistics and refinement.
 
 _reflns_Friedel_fraction is defined as the number of unique
 Friedel pairs measured divided by the number that would be
 possible theoretically, ignoring centric projections and
 systematic absences.
;

_computing_data_collection       ?
_computing_cell_refinement       ?
_computing_data_reduction        ?
_computing_structure_solution    'SHELXS-97 (Sheldrick, 1990)'
_computing_structure_refinement  'SHELXL-2013 (Sheldrick, 2013)'
_computing_molecular_graphics    ?
_computing_publication_material  ?

_refine_special_details          
;
 ?
;
_refine_ls_structure_factor_coef Fsqd
_refine_ls_matrix_type           full
_refine_ls_weighting_scheme      calc
_refine_ls_weighting_details     
;
 w=1/[\s^2^(Fo^2^)+(0.0724P)^2^+18.9983P]
 where P=(Fo^2^+2Fc^2^)/3
;
_atom_sites_solution_primary     direct
_atom_sites_solution_secondary   difmap
_atom_sites_solution_hydrogens   geom
_refine_ls_hydrogen_treatment    constr
_refine_ls_extinction_method     none
_refine_ls_extinction_coef       .
_refine_ls_number_reflns         1819
_refine_ls_number_parameters     72
_refine_ls_number_restraints     0
_refine_ls_R_factor_all          0.0814
_refine_ls_R_factor_gt           0.0748
_refine_ls_wR_factor_ref         0.1958
_refine_ls_wR_factor_gt          0.1927
_refine_ls_goodness_of_fit_ref   1.095
_refine_ls_restrained_S_all      1.095
_refine_ls_shift/su_max          0.000
_refine_ls_shift/su_mean         0.000

loop_
_atom_site_label
_atom_site_type_symbol
_atom_site_fract_x
_atom_site_fract_y
_atom_site_fract_z
_atom_site_U_iso_or_equiv
_atom_site_adp_type
_atom_site_occupancy
_atom_site_site_symmetry_order
_atom_site_calc_flag
_atom_site_refinement_flags_posn
_atom_site_refinement_flags_adp
_atom_site_refinement_flags_occupancy
_atom_site_disorder_assembly
_atom_site_disorder_group
Zn1 Zn 0.90202(5) 0.09798(5) 0.21795(2) 0.0274(4) Uani 1 2 d S T P . .
O1 O 1.0000 0.0000 0.2500 0.0228(19) Uani 1 8 d S T P . .
O2 O 0.9320(3) 0.0680(3) 0.16267(13) 0.0428(13) Uani 1 2 d S T P . .
N1 N 0.9624(4) 0.2526(3) 0.23424(11) 0.0302(10) Uani 1 1 d . . . . .
C1 C 0.9414(5) 0.3627(4) 0.22511(14) 0.0368(12) Uani 1 1 d . . . . .
C2 C 1.0000 0.4356(6) 0.2500 0.0358(17) Uani 1 2 d S T P . .
C3 C 0.8645(7) 0.3902(5) 0.19139(19) 0.068(2) Uani 1 1 d . . . . .
H3A H 0.8546 0.3219 0.1758 0.102 Uiso 1 1 calc R U . . .
H3B H 0.8994 0.4505 0.1761 0.102 Uiso 1 1 calc R U . . .
H3C H 0.7903 0.4159 0.2007 0.102 Uiso 1 1 calc R U . . .
C4 C 1.0000 0.0000 0.1462(3) 0.042(3) Uani 1 4 d S T P . .
C5 C 1.0000 0.0000 0.1028(3) 0.053(3) Uani 1 4 d S T P . .
C6 C 0.9297(7) 0.0703(7) 0.0819(3) 0.116(6) Uani 1 2 d S T P . .
H6A H 0.8794 0.1206 0.0946 0.139 Uiso 1 2 calc R U P . .
C7 C 0.9321(7) 0.0679(7) 0.0428(3) 0.123(6) Uani 1 2 d S T P . .
H7A H 0.8823 0.1177 0.0295 0.148 Uiso 1 2 calc R U P . .
C8 C 1.0000 0.0000 0.0221(3) 0.085(5) Uani 1 4 d S T P . .

loop_
_atom_site_aniso_label
_atom_site_aniso_U_11
_atom_site_aniso_U_22
_atom_site_aniso_U_33
_atom_site_aniso_U_23
_atom_site_aniso_U_13
_atom_site_aniso_U_12
Zn1 0.0261(5) 0.0261(5) 0.0298(6) 0.0009(2) -0.0009(2) 0.0006(4)
O1 0.021(3) 0.021(3) 0.027(4) 0.000 0.000 0.000
O2 0.049(2) 0.049(2) 0.030(2) -0.0042(16) 0.0042(16) 0.012(3)
N1 0.034(2) 0.017(2) 0.040(2) 0.0006(16) -0.0051(17) 0.0016(19)
C1 0.033(3) 0.028(3) 0.049(3) 0.004(2) -0.002(2) 0.000(2)
C2 0.039(4) 0.020(4) 0.048(4) 0.000 0.001(3) 0.000
C3 0.092(6) 0.032(4) 0.080(4) 0.012(3) -0.034(4) 0.003(4)
C4 0.047(4) 0.047(4) 0.032(5) 0.000 0.000 -0.018(6)
C5 0.064(5) 0.064(5) 0.031(5) 0.000 0.000 0.007(7)
C6 0.156(9) 0.156(9) 0.035(5) 0.003(3) -0.003(3) 0.105(11)
C7 0.167(10) 0.167(10) 0.036(5) 0.004(3) -0.004(3) 0.115(12)
C8 0.111(9) 0.111(9) 0.032(7) 0.000 0.000 0.034(11)

_geom_special_details            
;
 All esds (except the esd in the dihedral angle between two l.s. planes)
 are estimated using the full covariance matrix.  The cell esds are taken
 into account individually in the estimation of esds in distances, angles
 and torsion angles; correlations between esds in cell parameters are only
 used when they are defined by crystal symmetry.  An approximate (isotropic)
 treatment of cell esds is used for estimating esds involving l.s. planes.
;

loop_
_geom_bond_atom_site_label_1
_geom_bond_atom_site_label_2
_geom_bond_distance
_geom_bond_site_symmetry_2
_geom_bond_publ_flag
Zn1 O1 1.9410(9) . ?
Zn1 O2 1.967(4) . ?
Zn1 N1 1.992(4) . ?
Zn1 N1 1.992(4) 15_665 ?
Zn1 Zn1 3.1585(15) 11_666 ?
Zn1 Zn1 3.1585(15) 12_646 ?
O1 Zn1 1.9410(9) 11_666 ?
O1 Zn1 1.9410(9) 12_646 ?
O1 Zn1 1.9410(9) 2_755 ?
O2 C4 1.246(6) . ?
N1 C1 1.329(6) . ?
N1 N1 1.390(7) 5_755 ?
C1 C2 1.377(7) . ?
C1 C3 1.495(8) . ?
C2 C1 1.377(7) 5_755 ?
C2 C2 1.483(13) 2_765 ?
C4 O2 1.246(6) 2_755 ?
C4 C5 1.496(14) . ?
C5 C6 1.352(11) . ?
C5 C6 1.352(11) 2_755 ?
C6 C7 1.350(13) . ?
C7 C8 1.316(12) . ?
C8 C7 1.316(12) 2_755 ?
C8 C8 1.52(2) 9_755 ?

loop_
_geom_angle_atom_site_label_1
_geom_angle_atom_site_label_2
_geom_angle_atom_site_label_3
_geom_angle
_geom_angle_site_symmetry_1
_geom_angle_site_symmetry_3
_geom_angle_publ_flag
O1 Zn1 O2 110.35(16) . . ?
O1 Zn1 N1 98.99(11) . . ?
O2 Zn1 N1 111.62(12) . . ?
O1 Zn1 N1 98.99(11) . 15_665 ?
O2 Zn1 N1 111.62(12) . 15_665 ?
N1 Zn1 N1 123.0(2) . 15_665 ?
O1 Zn1 Zn1 35.546(13) . 11_666 ?
O2 Zn1 Zn1 123.55(13) . 11_666 ?
N1 Zn1 Zn1 63.48(11) . 11_666 ?
N1 Zn1 Zn1 116.19(11) 15_665 11_666 ?
O1 Zn1 Zn1 35.546(13) . 12_646 ?
O2 Zn1 Zn1 123.55(13) . 12_646 ?
N1 Zn1 Zn1 116.19(11) . 12_646 ?
N1 Zn1 Zn1 63.48(11) 15_665 12_646 ?
Zn1 Zn1 Zn1 60.69(3) 11_666 12_646 ?
Zn1 O1 Zn1 108.91(3) . 11_666 ?
Zn1 O1 Zn1 108.91(3) . 12_646 ?
Zn1 O1 Zn1 110.60(5) 11_666 12_646 ?
Zn1 O1 Zn1 110.60(5) . 2_755 ?
Zn1 O1 Zn1 108.91(3) 11_666 2_755 ?
Zn1 O1 Zn1 108.91(3) 12_646 2_755 ?
C4 O2 Zn1 131.5(5) . . ?
C1 N1 N1 107.4(3) . 5_755 ?
C1 N1 Zn1 136.3(3) . . ?
N1 N1 Zn1 115.97(11) 5_755 . ?
N1 C1 C2 110.2(5) . . ?
N1 C1 C3 119.6(5) . . ?
C2 C1 C3 130.2(5) . . ?
C1 C2 C1 104.9(6) 5_755 . ?
C1 C2 C2 127.5(3) 5_755 2_765 ?
C1 C2 C2 127.5(3) . 2_765 ?
O2 C4 O2 125.7(9) 2_755 . ?
O2 C4 C5 117.2(4) 2_755 . ?
O2 C4 C5 117.2(4) . . ?
C6 C5 C6 115.7(11) . 2_755 ?
C6 C5 C4 122.2(6) . . ?
C6 C5 C4 122.2(6) 2_755 . ?
C7 C6 C5 120.6(11) . . ?
C8 C7 C6 124.4(11) . . ?
C7 C8 C7 114.4(12) 2_755 . ?
C7 C8 C8 122.8(6) 2_755 9_755 ?
C7 C8 C8 122.8(6) . 9_755 ?

_refine_diff_density_max         0.739
_refine_diff_density_min         -0.551
_refine_diff_density_rms         0.088

_shelxl_version_number           2013-2

_shelx_res_file                  
;
TITL 3 in P4(2)/mcm
CELL 1.54178  11.5168  11.5168  34.4744  90.000  90.000  90.000
ZERR   2.00   0.0025   0.0025   0.0113   0.000   0.000   0.000
LATT  1
SYMM -X, -Y, Z
SYMM -Y, X, 0.5+Z
SYMM Y, -X, 0.5+Z
SYMM -X, Y, 0.5-Z
SYMM X, -Y, 0.5-Z
SYMM Y, X, -Z
SYMM -Y, -X, -Z
SFAC C H N O ZN
UNIT 68 64 16 10 8
TEMP 0
ACTA

L.S. 8
BOND
FMAP 2
PLAN 20
TEMP 0
SIZE 0.06 0.15 0.15

WGHT    0.072400   18.998301
FVAR       4.56812
ZN1   5    0.902021    0.097979    0.217952    10.50000    0.02615    0.02615 =
         0.02980    0.00091   -0.00091    0.00064
O1    4    1.000000    0.000000    0.250000    10.12500    0.02068    0.02068 =
         0.02701    0.00000    0.00000    0.00000
O2    4    0.931951    0.068049    0.162674    10.50000    0.04909    0.04909 =
         0.03034   -0.00424    0.00424    0.01197
N1    3    0.962399    0.252586    0.234239    11.00000    0.03403    0.01667 =
         0.04001    0.00057   -0.00514    0.00162
C1    1    0.941356    0.362738    0.225110    11.00000    0.03290    0.02841 =
         0.04907    0.00439   -0.00211    0.00030
C2    1    1.000000    0.435616    0.250000    10.50000    0.03942    0.02029 =
         0.04782    0.00000    0.00131    0.00000
C3    1    0.864533    0.390210    0.191391    11.00000    0.09210    0.03234 =
         0.07955    0.01249   -0.03353    0.00327
AFIX 137
H3A   2    0.854599    0.321919    0.175772    11.00000   -1.50000
H3B   2    0.899394    0.450455    0.176069    11.00000   -1.50000
H3C   2    0.790263    0.415900    0.200675    11.00000   -1.50000
AFIX   0
C4    1    1.000000    0.000000    0.146178    10.25000    0.04667    0.04667 =
         0.03156    0.00000    0.00000   -0.01822
C5    1    1.000000    0.000000    0.102778    10.25000    0.06364    0.06364 =
         0.03109    0.00000    0.00000    0.00720
C6    1    0.929732    0.070268    0.081897    10.50000    0.15612    0.15612 =
         0.03471    0.00291   -0.00291    0.10537
AFIX  43
H6A   2    0.879365    0.120635    0.094606    10.50000   -1.20000
AFIX   0
C7    1    0.932072    0.067928    0.042761    10.50000    0.16703    0.16703 =
         0.03619    0.00363   -0.00363    0.11471
AFIX  43
H7A   2    0.882336    0.117664    0.029510    10.50000   -1.20000
AFIX   0
C8    1    1.000000    0.000000    0.022100    10.25000    0.11091    0.11091 =
         0.03222    0.00000    0.00000    0.03389

HKLF 4

REM  3 in P4(2)/mcm
REM R1 =  0.0748 for    1633 Fo > 4sig(Fo)  and  0.0814 for all    1819 data
REM     72 parameters refined using      0 restraints

END

WGHT      0.0850     14.0758

REM Highest difference peak  0.739,  deepest hole -0.551,  1-sigma level  0.088
Q1    1   1.1070  0.1070  0.2197  10.50000  0.05    0.74
Q2    1   0.8946  0.1910  0.2207  11.00000  0.05    0.59
Q3    1   0.9060  0.0940  0.1905  10.50000  0.05    0.51
Q4    1   0.8756  0.1244  0.1625  10.50000  0.05    0.44
Q5    1   1.0000  0.0000  0.2347  10.25000  0.05    0.42
Q6    1   0.7462  0.2538  0.1695  10.50000  0.05    0.40
Q7    1   0.9596  0.0404  0.2195  10.50000  0.05    0.38
Q8    1   1.0460  0.2354  0.2372  11.00000  0.05    0.37
Q9    1   1.0000  0.5000  0.2500  10.25000  0.05    0.36
Q10   1   0.9887  0.2003  0.1973  11.00000  0.05    0.36
Q11   1   0.8939  0.1061  0.2469  10.50000  0.05    0.34
Q12   1   1.0240  0.4186  0.2265  11.00000  0.05    0.32
Q13   1   1.0000  0.0000  0.1148  10.25000  0.05    0.29
Q14   1   0.9054  0.0946  0.0399  10.50000  0.05    0.28
Q15   1   0.9094  0.0906  0.0732  10.50000  0.05    0.28
Q16   1   0.7133  0.2867  0.2013  10.50000  0.05    0.28
Q17   1   0.9256  0.4128  0.2486  11.00000  0.05    0.27
Q18   1   0.7057  0.7057  0.1671  10.50000  0.05    0.27
Q19   1   0.5000  0.5000  0.2500  10.12500  0.05    0.27
Q20   1   0.9117  0.2902  0.2395  11.00000  0.05    0.26
;
_shelx_res_checksum              45076

_shelx_hkl_file                  
;
	0	0	-6	727929	15117	611325	15.79	-3.81	1.0000 
	0	0	6	746769	15560	628604	15.79	3.81	1.0000 
	0	0	-8	9904	2431	69681	-36.1	-4.84	1.0000 
	0	0	-10	2122	950	686	-15.8	2.52	1.0000 
	0	0	14	149026	7241	208212	15.53	0.86	1.0000 
	0	0	-14	142732	7181	200760	15.53	-0.86	1.0000 
	0	0	14	143169	6764	201279	15.53	0.86	1.0000 
	0	0	16	683298	20745	639031	6.07	-1.21	1.0000 
	0	0	-16	622165	18950	579957	6.07	1.21	1.0000 
	0	0	18	286662	12105	321553	6.95	1.48	1.0000 
	0	0	-18	293903	11344	329220	6.95	-1.48	1.0000 
	0	0	18	290572	12357	325694	6.95	1.48	1.0000 
	0	0	20	174488	8374	187297	-3.37	1.43	1.0000 
	0	0	-20	187269	7064	200532	-3.37	-1.43	1.0000 
	0	0	20	187408	8226	200676	-3.37	1.43	1.0000 
	0	0	22	59770	5047	70722	4.7	-3.94	1.0000 
	0	0	-22	62346	5452	73528	4.7	3.94	1.0000 
	0	0	22	66336	5440	77865	4.7	-3.94	1.0000 
	0	0	24	0	202	80	-1.55	1.13	1.0000 
	0	0	-24	42	132	229	-1.55	-1.13	1.0000 
	0	0	24	6	96	39	-1.55	1.13	1.0000 
	0	0	-24	16	75	161	-1.55	-1.13	1.0000 
	0	0	-24	408	151	832	-1.55	-1.13	1.0000 
	0	0	-26	164	294	456	-1.75	0.74	1.0000 
	0	0	26	281	197	642	-1.75	-0.74	1.0000 
	0	0	-26	227	159	559	-1.75	0.74	1.0000 
	0	0	-26	137	102	410	-1.75	0.74	1.0000 
	0	0	-28	23538	6072	20453	-2.52	-2.03	1.0000 
	0	0	28	30853	5556	27321	-2.52	2.03	1.0000 
	0	0	-28	39264	6057	35279	-2.52	-2.03	1.0000 
	0	0	-30	92758	13664	89314	1.24	-0.55	1.0000 
	0	0	-30	117838	30869	113953	1.24	-0.55	1.0000 
	0	0	-32	92298	8827	95184	0.89	-2.02	1.0000 
	0	0	-32	93499	28008	96404	0.89	-2.02	1.0000 
	0	0	-34	149594	62963	154395	-1.39	-0.81	1.0000 
	0	0	-34	146602	25445	151355	-1.39	-0.81	1.0000 
	0	0	-36	50723	12820	51275	0.19	-1.46	1.0000 
	0	0	-36	50412	12866	50962	0.19	-1.46	1.0000 
	0	0	-38	2941	901	2534	0.91	0.45	1.0000 
	0	0	-38	2851	864	2450	0.91	0.45	1.0000 
	-1	0	6	225039	4108	152992	18.43	2.95	1.0000 
	-1	0	-6	218977	4028	148686	18.24	-3.09	1.0000 
	0	-1	6	212340	3818	142798	18.36	3.08	1.0000 
	-1	0	6	216660	3961	146094	18.43	2.95	1.0000 
	0	-1	8	11272	1257	34328	17.51	-0.62	1.0000 
	0	1	8	13052	1611	37235	17.42	-0.62	1.0000 
	-1	0	8	12559	1456	36567	17.52	-0.66	1.0000 
	-1	0	-8	15943	1544	41992	17.41	0.58	1.0000 
	0	1	-8	14744	1413	40214	17.51	0.62	1.0000 
	0	-1	8	14252	1401	39398	17.51	-0.62	1.0000 
	-1	0	8	14710	1605	40177	17.52	-0.66	1.0000 
	0	-1	10	6179	1022	2962	5.3	-0.93	1.0000 
	-1	0	-10	4607	692	1923	5.25	1.19	1.0000 
	0	1	-10	4685	1088	1959	5.3	0.93	1.0000 
	0	-1	10	4971	358	2145	5.3	-0.93	1.0000 
	0	-1	12	26608	1460	32533	-3.76	-0.91	1.0000 
	-1	0	-12	25738	1553	31722	-3.86	0.93	1.0000 
	0	1	-12	26385	1528	32286	-3.76	0.91	1.0000 
	0	-1	12	26704	1496	32639	-3.76	-0.91	1.0000 
	0	1	14	184445	5866	159997	-6.52	-0.16	1.0000 
	1	0	14	165750	5253	142260	-6.62	-0.42	1.0000 
	0	-1	14	165312	4890	142046	-6.56	-0.65	1.0000 
	-1	0	14	190466	6020	165754	-6.48	-0.4	1.0000 
	-1	0	-14	189152	5656	163998	-6.62	0.42	1.0000 
	0	-1	-14	186691	5623	162089	-6.52	0.16	1.0000 
	0	1	-14	192315	5675	167152	-6.56	0.65	1.0000 
	1	0	-14	182549	5659	158374	-6.48	0.4	1.0000 
	0	1	14	189863	5677	165046	-6.52	-0.16	1.0000 
	0	-1	14	193030	5679	167818	-6.56	-0.65	1.0000 
	-1	0	14	190004	6317	165323	-6.48	-0.4	1.0000 
	0	-1	16	696940	21832	673674	3.16	-1.61	1.0000 
	0	1	16	737109	23077	712638	3.22	-1.47	1.0000 
	1	0	16	783737	24555	759295	3.13	-1.59	1.0000 
	-1	0	16	793610	24842	767859	3.27	-1.47	1.0000 
	-1	0	16	789031	24722	763355	3.27	-1.47	1.0000 
	0	-1	16	717141	22481	693538	3.16	-1.61	1.0000 
	0	1	16	738323	23148	713832	3.22	-1.47	1.0000 
	-1	0	18	242795	8765	221533	-4.9	0.4	1.0000 
	0	-1	18	252980	8263	230912	-4.98	0.27	1.0000 
	0	-1	-18	243654	8105	222308	-4.91	-0.26	1.0000 
	-1	0	-18	239088	7903	217632	-4.98	-0.17	1.0000 
	1	0	-18	234860	8612	213957	-4.9	-0.4	1.0000 
	1	0	18	239522	8689	218046	-4.98	0.17	1.0000 
	0	1	18	246554	8128	225079	-4.91	0.26	1.0000 
	0	-1	18	254133	8294	232014	-4.98	0.27	1.0000 
	-1	0	18	246662	8115	225228	-4.9	0.4	1.0000 
	-1	0	20	97373	4306	103015	-1.97	-0.01	1.0000 
	0	1	20	94972	4250	100832	-2.08	0.01	1.0000 
	-1	0	-20	86565	6326	92251	-2.1	0.17	1.0000 
	0	1	-20	94954	4347	100630	-2	0.19	1.0000 
	0	-1	-20	91642	4162	97399	-2.08	-0.01	1.0000 
	1	0	-20	92025	4068	97512	-1.97	0.01	1.0000 
	1	0	20	90861	4192	96685	-2.1	-0.17	1.0000 
	0	1	20	91813	4101	97576	-2.08	0.01	1.0000 
	-1	0	20	92499	4155	98000	-1.97	-0.01	1.0000 
	-1	0	22	15512	3905	14729	-0.77	1.02	1.0000 
	0	-1	22	16485	2087	15663	-0.78	0.97	1.0000 
	0	1	22	13466	4186	12748	-0.76	1.08	1.0000 
	0	1	-22	13159	3628	12423	-0.78	-0.97	1.0000 
	-1	0	-22	13692	3799	12970	-0.76	-1.07	1.0000 
	1	0	-22	13556	4033	12823	-0.77	-1.02	1.0000 
	0	-1	-22	12897	3833	12194	-0.76	-1.08	1.0000 
	0	1	22	14110	3515	13375	-0.76	1.08	1.0000 
	0	-1	22	14609	3776	13834	-0.78	0.97	1.0000 
	1	0	22	14631	3728	13885	-0.76	1.07	1.0000 
	-1	0	22	12606	2862	11899	-0.77	1.02	1.0000 
	-1	0	24	7497	3502	8326	1.04	-0.78	1.0000 
	0	-1	-24	8017	2343	8935	1.11	0.79	1.0000 
	1	0	-24	8839	2804	9738	1.04	0.78	1.0000 
	-1	0	-24	8582	2764	9498	1.07	0.68	1.0000 
	0	1	-24	8823	2509	9708	1.03	0.66	1.0000 
	0	1	24	9773	2596	10785	1.11	-0.79	1.0000 
	1	0	24	10844	3092	11873	1.07	-0.68	1.0000 
	-1	0	24	9808	2634	10754	1.04	-0.78	1.0000 
	0	-1	24	10329	2552	11286	1.03	-0.66	1.0000 
	-1	0	-24	7965	2034	8848	1.07	0.68	1.0000 
	0	-1	-24	9848	1872	10864	1.11	0.79	1.0000 
	1	0	-24	7980	1891	8835	1.04	0.78	1.0000 
	-1	0	-24	9241	1228	10192	1.07	0.68	1.0000 
	0	-1	-24	8830	854	9792	1.11	0.79	1.0000 
	1	0	-24	9202	931	10119	1.04	0.78	1.0000 
	-1	0	26	5468	2987	6568	-1.58	0.08	1.0000 
	-1	0	-26	8612	2781	9998	-1.59	0.01	1.0000 
	1	0	-26	7911	2090	9224	-1.58	-0.08	1.0000 
	0	-1	-26	7449	2307	8715	-1.56	0.05	1.0000 
	1	0	26	10426	2047	11946	-1.59	-0.01	1.0000 
	-1	0	26	9553	2355	10991	-1.58	0.08	1.0000 
	0	1	26	9156	2127	10554	-1.56	-0.05	1.0000 
	-1	0	-26	8097	2477	9443	-1.59	0.01	1.0000 
	0	-1	-26	10029	1986	11490	-1.56	0.05	1.0000 
	1	0	-26	8220	2110	9557	-1.58	-0.08	1.0000 
	0	-1	-26	9350	1310	10762	-1.56	0.05	1.0000 
	-1	0	-26	9165	1369	10593	-1.59	0.01	1.0000 
	1	0	-26	8844	1319	10229	-1.58	-0.08	1.0000 
	-1	0	-28	26063	6769	23464	-1.82	0.29	1.0000 
	1	0	-28	26148	5554	23526	-1.83	0.23	1.0000 
	1	0	28	31393	5503	28534	-1.82	-0.29	1.0000 
	-1	0	28	31429	4530	28548	-1.83	-0.23	1.0000 
	-1	0	-28	38735	2459	35551	-1.82	0.29	1.0000 
	0	-1	-28	39188	1488	35955	-1.84	0.18	1.0000 
	0	-1	-28	41084	1967	37772	-1.84	0.18	1.0000 
	-1	0	-28	40924	4162	37650	-1.82	0.29	1.0000 
	1	0	-28	42509	3823	39147	-1.83	0.23	1.0000 
	-1	0	-30	77498	12440	79325	-0.74	-0.3	1.0000 
	0	-1	-30	69018	11380	70754	-0.74	-0.36	1.0000 
	1	0	-30	77528	12196	79307	-0.72	-0.3	1.0000 
	1	0	-30	80306	13692	82117	-0.72	-0.3	1.0000 
	0	-1	-30	78979	13868	80835	-0.74	-0.36	1.0000 
	-1	0	-30	72801	11685	74573	-0.74	-0.3	1.0000 
	-1	0	-32	46619	4524	47019	0.26	1.04	1.0000 
	1	0	-32	44769	5613	45203	0.28	1.13	1.0000 
	0	-1	-32	47004	4511	47426	0.27	1.04	1.0000 
	-1	0	-32	45827	5856	46223	0.26	1.04	1.0000 
	0	-1	-32	48983	6367	49415	0.27	1.04	1.0000 
	1	0	-32	48991	5598	49446	0.28	1.13	1.0000 
	0	-1	-34	78029	13317	78489	-0.12	1.08	1.0000 
	-1	0	-34	73061	13266	73523	-0.13	1.07	1.0000 
	1	0	-34	78509	13348	78926	-0.11	1.05	1.0000 
	-1	0	-34	73343	12724	73806	-0.13	1.07	1.0000 
	1	0	-34	76327	13921	76738	-0.11	1.05	1.0000 
	-1	0	-36	17930	5407	17840	-0.04	1.33	1.0000 
	1	0	-36	20758	6088	20709	-0.01	1.26	1.0000 
	0	-1	-36	19320	5591	19252	-0.02	1.28	1.0000 
	-1	0	-36	19700	4965	19608	-0.04	1.33	1.0000 
	0	-1	-36	20272	5048	20203	-0.02	1.28	1.0000 
	1	0	-36	20248	5125	20199	-0.01	1.26	1.0000 
	1	0	-38	68	128	144	-0.78	0.29	1.0000 
	0	-1	-38	73	141	150	-0.78	0.25	1.0000 
	-1	0	-38	107	169	202	-0.8	0.28	1.0000 
	0	-1	-38	91	146	176	-0.78	0.25	1.0000 
	-1	0	-38	115	160	213	-0.8	0.28	1.0000 
	1	0	-38	43	121	106	-0.78	0.29	1.0000 
	-1	-1	3	269023	414	8771	94.26	-1.62	1.0000 
	-1	1	3	279492	449	9264	-95.74	1.36	1.0000 
	1	-1	-3	282890	554	9891	-95.74	-1.36	1.0000 
	1	1	-3	273233	516	9550	94.26	1.62	1.0000 
	1	-1	-3	283327	566	9973	-95.74	-1.36	1.0000 
	-1	-1	3	269643	415	8884	94.26	-1.62	1.0000 
	1	1	-3	275236	769	9930	94.26	1.62	1.0000 
	-1	1	-3	280475	427	9484	-95.69	-1.54	1.0000 
	1	-1	3	277755	474	8989	-95.69	1.54	1.0000 
	1	1	3	270558	435	9087	94.22	-1.58	1.0000 
	1	1	3	272729	442	9491	94.22	-1.58	1.0000 
	1	-1	3	280682	408	9522	-95.69	1.54	1.0000 
	-1	1	-3	277599	553	8961	-95.69	-1.54	1.0000 
	-1	-1	-3	271702	428	9299	94.22	1.58	1.0000 
	-1	1	3	281248	458	9586	-95.74	1.36	1.0000 
	1	-1	-3	283896	562	10080	-95.74	-1.36	1.0000 
	-1	-1	3	270678	427	9074	94.26	-1.62	1.0000 
	1	1	-3	274649	513	9818	94.26	1.62	1.0000 
	-1	1	-4	4223	258	2031	4.32	0.98	1.0000 
	-1	1	4	4396	238	2140	4.34	-1.01	1.0000 
	-1	-1	4	7132	310	2094	8.5	-2.83	1.0000 
	1	1	-4	7761	349	2447	8.5	2.83	1.0000 
	1	1	-4	7904	435	2529	8.5	2.83	1.0000 
	-1	1	-4	5328	299	2817	4.32	0.98	1.0000 
	1	-1	4	5093	338	2647	4.32	-0.98	1.0000 
	1	-1	4	6112	348	3395	4.32	-0.98	1.0000 
	1	1	4	9158	501	3283	8.56	-3.13	1.0000 
	-1	1	-4	5399	300	2869	4.32	0.98	1.0000 
	-1	1	4	5935	377	3250	4.34	-1.01	1.0000 
	-1	-1	4	9244	415	3323	8.5	-2.83	1.0000 
	1	1	-4	9643	441	3567	8.5	2.83	1.0000 
	-1	1	-5	364209	3288	121785	56.42	1.93	1.0000 
	1	-1	5	379748	3478	130844	56.42	-1.93	1.0000 
	1	1	5	405360	3505	129684	-61.22	1.82	1.0000 
	-1	1	5	371305	3432	125765	56.45	-1.56	1.0000 
	-1	-1	5	399834	3413	126712	-61.18	2.23	1.0000 
	-1	-1	6	17800	1244	36151	-3.23	-14.65	1.0000 
	-1	1	-6	15915	1231	35008	-13.34	2.09	1.0000 
	-1	1	6	14379	1211	32568	-13.23	-2.23	1.0000 
	-1	-1	6	12626	1062	28353	-3.23	-14.65	1.0000 
	-1	1	7	383625	15606	625411	37.95	0.89	1.0000 
	-1	-1	7	406752	15631	628653	-34.35	-0.31	1.0000 
	-1	1	-7	375253	15310	614600	37.93	-1.08	1.0000 
	1	1	7	377898	14842	593671	-34.49	-0.33	1.0000 
	-1	-1	7	370893	14568	583871	-34.35	-0.31	1.0000 
	-1	1	7	347457	14505	578983	37.95	0.89	1.0000 
	-1	-1	8	5112	523	6927	-1.86	-4.7	1.0000 
	-1	-1	8	4405	519	6071	-1.86	-4.7	1.0000 
	-1	1	8	2172	522	5574	-6.15	2.25	1.0000 
	1	1	9	110763	4290	150243	12.14	-0.27	1.0000 
	-1	1	9	115735	4270	150052	-10.46	-1.1	1.0000 
	-1	-1	9	97443	3863	134793	12.19	-0.69	1.0000 
	-1	1	9	100329	3859	132432	-10.46	-1.1	1.0000 
	1	-1	10	1670	2843	2123	-2.26	4.6	1.0000 
	-1	1	-10	1141	1534	1411	-2.26	-4.6	1.0000 
	1	-1	10	820	1332	943	-2.26	4.6	1.0000 
	-1	-1	10	1383	748	1597	-1.15	3.36	1.0000 
	1	-1	11	26142	2271	26217	0.08	-1.78	1.0000 
	-1	-1	11	36202	1275	25958	6.45	-0.17	1.0000 
	-1	1	-11	27366	1451	27444	0.08	1.78	1.0000 
	1	-1	11	29170	1784	29253	0.08	-1.78	1.0000 
	-1	-1	11	40251	1522	29403	6.45	-0.17	1.0000 
	1	-1	12	69596	2995	72202	-1.11	0.58	1.0000 
	-1	-1	12	69376	2932	70141	-0.36	2.8	1.0000 
	-1	1	-12	65771	2432	68305	-1.11	-0.58	1.0000 
	1	-1	12	66587	2405	69137	-1.11	0.58	1.0000 
	-1	-1	12	64889	2326	65623	-0.36	2.8	1.0000 
	1	-1	13	23636	2008	32829	-6.05	-0.78	1.0000 
	1	1	13	26655	1623	33130	4.1	-1.32	1.0000 
	-1	-1	13	27062	1615	33510	4.05	-1.53	1.0000 
	-1	1	13	25024	1731	34431	-6.03	-0.8	1.0000 
	-1	1	-13	21023	2685	29735	-6.05	0.78	1.0000 
	-1	-1	-13	25566	1680	31914	4.1	1.32	1.0000 
	1	-1	13	22048	2237	30952	-6.05	-0.78	1.0000 
	1	1	13	27111	1725	33639	4.1	-1.32	1.0000 
	-1	-1	13	27380	1637	33864	4.05	-1.53	1.0000 
	1	-1	14	181161	6388	179775	-0.34	-0.67	1.0000 
	1	1	14	175057	6045	177464	0.53	2.42	1.0000 
	-1	-1	14	177453	6046	179558	0.45	2.33	1.0000 
	-1	1	14	180544	6496	178999	-0.38	-0.83	1.0000 
	-1	-1	-14	170752	5952	173128	0.53	-2.42	1.0000 
	-1	1	-14	180910	6071	179525	-0.34	0.67	1.0000 
	1	-1	-14	174390	5851	172872	-0.38	0.83	1.0000 
	1	1	-14	158917	5466	160903	0.45	-2.33	1.0000 
	1	-1	14	184475	6262	183076	-0.34	-0.67	1.0000 
	1	1	14	174737	6031	177142	0.53	2.42	1.0000 
	-1	1	14	182484	6163	180931	-0.38	-0.83	1.0000 
	-1	-1	14	163842	5654	165860	0.45	2.33	1.0000 
	1	1	15	12516	4842	7775	5.25	0.57	1.0000 
	1	-1	15	18499	5395	11661	-6.44	-2.46	1.0000 
	-1	1	15	15642	892	9457	-6.39	-2.48	1.0000 
	-1	-1	15	16574	911	10961	5.33	0.64	1.0000 
	-1	1	-15	14948	4456	8862	-6.44	2.46	1.0000 
	-1	-1	-15	10445	4670	6162	5.25	-0.57	1.0000 
	1	-1	-15	17628	2032	11026	-6.39	2.48	1.0000 
	1	1	-15	17398	1438	11633	5.33	-0.64	1.0000 
	1	-1	15	14647	5559	8629	-6.44	-2.46	1.0000 
	1	1	15	10986	4679	6579	5.25	0.57	1.0000 
	-1	-1	15	17149	1748	11429	5.33	0.64	1.0000 
	-1	1	15	15209	4133	9118	-6.39	-2.48	1.0000 
	1	1	16	605654	20404	622996	-2.48	2.46	1.0000 
	-1	-1	16	610855	20706	629020	-2.59	2.46	1.0000 
	-1	1	16	593853	19910	608836	-2.15	0.69	1.0000 
	-1	1	-16	625462	20893	640587	-2.12	-0.72	1.0000 
	-1	-1	-16	566132	19141	582898	-2.48	-2.46	1.0000 
	1	-1	16	636651	21185	651910	-2.12	0.72	1.0000 
	1	1	16	640717	21466	658554	-2.48	2.46	1.0000 
	-1	1	16	606486	20324	621626	-2.15	0.69	1.0000 
	-1	1	17	282	569	960	-2.13	-2.68	1.0000 
	-1	-1	17	482	575	1205	-2.71	0.8	1.0000 
	-1	1	-17	227	2292	-463	-2.2	2.51	1.0000 
	-1	-1	-17	38	611	367	-2.73	-0.93	1.0000 
	1	-1	-17	131	726	642	-2.13	2.68	1.0000 
	1	1	-17	182	780	689	-2.71	-0.8	1.0000 
	1	1	17	33	716	350	-2.73	0.93	1.0000 
	1	-1	17	259	612	898	-2.2	-2.51	1.0000 
	-1	1	17	141	586	665	-2.13	-2.68	1.0000 
	-1	-1	17	205	804	734	-2.71	0.8	1.0000 
	-1	-1	18	159558	6881	173880	3.88	0.14	1.0000 
	-1	1	18	154786	7027	173206	5.07	-1.04	1.0000 
	-1	1	-18	151954	6389	170215	5.07	0.93	1.0000 
	-1	-1	-18	148952	6636	162524	3.81	-0.1	1.0000 
	1	-1	-18	147607	6945	165606	5.07	1.04	1.0000 
	1	-1	18	149324	7257	167431	5.07	-0.93	1.0000 
	1	1	18	151235	6663	164908	3.81	0.1	1.0000 
	-1	-1	18	151019	6238	164961	3.88	0.14	1.0000 
	-1	1	18	147208	7201	165183	5.07	-1.04	1.0000 
	-1	1	19	1382	666	2463	-2.79	0.28	1.0000 
	-1	-1	19	3038	651	2612	-1.03	-1.29	1.0000 
	-1	-1	-19	2132	738	1799	-0.95	1.29	1.0000 
	-1	1	-19	1095	761	2081	-2.8	-0.22	1.0000 
	1	1	-19	2767	732	2359	-1.03	1.29	1.0000 
	1	-1	-19	948	617	1869	-2.79	-0.28	1.0000 
	1	1	19	1261	664	1000	-0.95	-1.29	1.0000 
	1	-1	19	1172	702	2187	-2.8	0.22	1.0000 
	-1	1	19	1175	840	2183	-2.79	0.28	1.0000 
	-1	-1	19	2622	695	2224	-1.03	-1.29	1.0000 
	-1	-1	20	38729	2570	34347	2.55	-0.07	1.0000 
	-1	1	20	42170	2020	35113	3.96	0.41	1.0000 
	-1	-1	-20	35525	1956	31297	2.57	0.12	1.0000 
	-1	1	-20	38854	2605	32042	4	-0.38	1.0000 
	1	1	-20	37967	2255	33629	2.55	0.07	1.0000 
	1	-1	-20	38177	1893	31478	3.96	-0.41	1.0000 
	1	1	20	36519	1920	32230	2.57	-0.12	1.0000 
	-1	-1	20	37199	3118	32907	2.55	-0.07	1.0000 
	-1	1	20	39566	4868	32741	3.96	0.41	1.0000 
	-1	-1	21	5251	1547	6109	-1.31	1.16	1.0000 
	-1	1	21	6832	1722	6199	-0.88	-0.31	1.0000 
	-1	-1	-21	5044	1297	5842	-1.24	-1.08	1.0000 
	-1	1	-21	7347	1902	6716	-0.85	0.31	1.0000 
	1	1	-21	5350	1673	6216	-1.31	-1.16	1.0000 
	1	-1	-21	6803	1514	6171	-0.88	0.31	1.0000 
	1	-1	21	7576	1418	6935	-0.85	-0.31	1.0000 
	1	1	21	5712	1298	6561	-1.24	1.08	1.0000 
	-1	1	21	6801	1470	6169	-0.88	-0.31	1.0000 
	-1	-1	21	6277	1335	7215	-1.31	1.16	1.0000 
	-1	1	22	4	162	155	2.67	-1.72	1.0000 
	-1	-1	22	67	181	18	-2.53	-0.94	1.0000 
	-1	1	-22	31	168	81	2.71	1.74	1.0000 
	1	-1	-22	102	231	18	2.67	1.72	1.0000 
	1	1	-22	11	220	117	-2.53	0.94	1.0000 
	-1	-1	-22	150	293	-100	-2.44	1.17	1.0000 
	1	1	22	107	128	4	-2.44	-1.17	1.0000 
	1	-1	22	78	211	33	2.71	-1.74	1.0000 
	-1	-1	22	11	149	163	-2.53	-0.94	1.0000 
	-1	1	22	206	265	-2	2.67	-1.72	1.0000 
	-1	-1	23	15020	3829	12108	-2.84	0.96	1.0000 
	-1	1	23	14468	4351	12464	1.96	1.05	1.0000 
	1	1	-23	16320	3713	13279	-2.84	-0.96	1.0000 
	-1	-1	-23	16185	3196	13220	-2.76	-0.8	1.0000 
	1	-1	-23	15767	3564	13673	1.96	-1.05	1.0000 
	-1	1	-23	16466	3443	14311	1.98	-1.13	1.0000 
	1	1	23	19122	3166	15888	-2.76	0.8	1.0000 
	1	-1	23	16974	2829	14785	1.98	1.13	1.0000 
	-1	-1	23	19759	2944	16400	-2.84	0.96	1.0000 
	-1	1	23	16115	3822	13998	1.96	1.05	1.0000 
	-1	-1	24	21659	5787	18701	-2.32	0.54	1.0000 
	-1	1	24	26539	4587	23117	-2.42	0.42	1.0000 
	1	1	-24	26103	6284	22846	-2.32	-0.54	1.0000 
	1	-1	-24	24806	6242	21501	-2.42	-0.42	1.0000 
	-1	-1	-24	25131	6382	21874	-2.36	-0.33	1.0000 
	-1	1	24	26054	5792	22664	-2.42	0.42	1.0000 
	1	1	24	29870	2369	26309	-2.36	0.33	1.0000 
	-1	-1	24	28119	5141	24734	-2.32	0.54	1.0000 
	1	-1	24	30778	5309	27058	-2.43	0.41	1.0000 
	-1	-1	-24	28575	2993	25094	-2.36	-0.33	1.0000 
	1	-1	-24	26607	2972	23180	-2.42	-0.42	1.0000 
	-1	-1	-24	27893	2169	24455	-2.36	-0.33	1.0000 
	1	-1	-24	26617	2783	23189	-2.42	-0.42	1.0000 
	-1	1	25	5112	2168	5714	0.91	0.02	1.0000 
	-1	-1	25	6610	2351	5742	1.19	-0.87	1.0000 
	-1	-1	-25	8940	1938	7895	1.24	0.77	1.0000 
	1	1	-25	9004	2166	7988	1.19	0.87	1.0000 
	1	-1	-25	6557	1986	7237	0.91	-0.02	1.0000 
	1	1	25	11460	1872	10274	1.24	-0.77	1.0000 
	-1	-1	25	10023	1938	8950	1.19	-0.87	1.0000 
	-1	1	25	9032	1775	9827	0.91	0.02	1.0000 
	-1	-1	-25	10022	1490	8914	1.24	0.77	1.0000 
	1	-1	-25	8196	1452	8954	0.91	-0.02	1.0000 
	-1	-1	-25	9917	1084	8815	1.24	0.77	1.0000 
	1	-1	-25	7631	1077	8363	0.91	-0.02	1.0000 
	-1	1	26	15345	5846	13596	1.64	-0.54	1.0000 
	-1	-1	-26	18585	5461	19435	-0.71	-1.14	1.0000 
	1	-1	-26	21109	4733	19050	1.64	0.54	1.0000 
	1	1	26	21924	4420	22849	-0.71	1.14	1.0000 
	-1	1	26	24858	4730	22620	1.64	-0.54	1.0000 
	1	-1	-26	24292	2326	22080	1.64	0.54	1.0000 
	-1	-1	-26	21773	4195	22695	-0.71	-1.14	1.0000 
	-1	-1	-26	21473	2824	22388	-0.71	-1.14	1.0000 
	1	-1	-26	24282	2635	22070	1.64	0.54	1.0000 
	-1	1	27	6352	2965	5705	0.93	-0.18	1.0000 
	-1	-1	-27	9824	2303	7914	-2.24	-0.41	1.0000 
	1	-1	-27	8173	2434	7437	0.93	0.18	1.0000 
	-1	1	27	10968	2362	10113	0.93	-0.18	1.0000 
	1	1	27	11786	2226	9685	-2.24	0.41	1.0000 
	1	-1	-27	10002	2481	9186	0.93	0.18	1.0000 
	-1	-1	-27	11056	2541	9024	-2.24	-0.41	1.0000 
	-1	-1	-27	13352	1804	11109	-2.24	-0.41	1.0000 
	1	-1	-27	12258	1786	11353	0.93	0.18	1.0000 
	1	-1	-28	33826	2040	32489	-0.81	0.03	1.0000 
	-1	-1	-28	35135	2461	31194	-2.36	1.16	1.0000 
	-1	-1	-28	36566	1784	32543	-2.36	1.16	1.0000 
	1	-1	-28	32774	4078	31458	-0.81	0.03	1.0000 
	1	-1	-29	7681	2165	6236	-1.93	-0.28	1.0000 
	-1	-1	-29	6475	2028	5882	0.84	-0.24	1.0000 
	-1	-1	-29	10013	1052	9273	0.84	-0.24	1.0000 
	1	-1	-29	9827	1217	8183	-1.93	-0.28	1.0000 
	-1	-1	-30	47835	8335	50139	-1.06	1.47	1.0000 
	1	-1	-30	53534	8539	55196	-0.77	0.42	1.0000 
	-1	-1	-30	47486	7853	49782	-1.06	1.47	1.0000 
	1	-1	-30	54718	9875	56398	-0.77	0.42	1.0000 
	-1	-1	-31	1415	510	1514	0.28	-0.16	1.0000 
	1	1	-31	1176	426	1256	0.25	-0.23	1.0000 
	1	-1	-31	1613	535	1586	0.09	-0.38	1.0000 
	-1	-1	-31	1032	374	1117	0.28	-0.16	1.0000 
	1	-1	-31	1614	668	1587	0.09	-0.38	1.0000 
	1	1	-31	1086	376	1162	0.25	-0.23	1.0000 
	-1	-1	-32	19619	2534	19027	-0.51	-0.39	1.0000 
	1	-1	-32	19767	3818	18602	-0.98	-0.5	1.0000 
	1	-1	-32	22888	2503	21634	-0.98	-0.5	1.0000 
	-1	-1	-32	22238	2673	21608	-0.51	-0.39	1.0000 
	-1	-1	-33	47	103	102	-0.92	-0.16	1.0000 
	1	1	-33	17	227	-6	-0.92	-0.1	1.0000 
	1	-1	-33	5	128	-32	0.31	-0.4	1.0000 
	1	-1	-33	5	341	-119	0.31	-0.4	1.0000 
	1	1	-33	17	278	-78	-0.92	-0.1	1.0000 
	-1	-1	-33	18	331	-247	-0.92	-0.16	1.0000 
	-1	-1	-34	38371	6803	36659	0.95	-0.78	1.0000 
	1	-1	-34	38049	6770	36010	1.16	-0.38	1.0000 
	-1	-1	-34	40499	7442	38740	0.95	-0.78	1.0000 
	1	-1	-34	41305	7451	39180	1.16	-0.38	1.0000 
	1	-1	-35	3052	1142	3475	0.82	-0.05	1.0000 
	-1	-1	-35	2952	1024	3276	-0.62	-0.45	1.0000 
	-1	-1	-35	2203	766	2484	-0.62	-0.45	1.0000 
	1	1	-35	2137	732	2402	-0.59	-0.45	1.0000 
	1	-1	-35	2736	920	3137	0.82	-0.05	1.0000 
	-1	-1	-36	6726	1928	5990	-1.09	-0.68	1.0000 
	1	-1	-36	6389	2074	6509	0.15	-0.18	1.0000 
	-1	-1	-36	6814	1744	6073	-1.09	-0.68	1.0000 
	1	-1	-36	6270	1820	6389	0.15	-0.18	1.0000 
	-1	-1	-37	5546	1944	6019	0.69	0.01	1.0000 
	1	-1	-37	6429	2925	7169	-0.98	-0.25	1.0000 
	-1	-1	-37	6510	2809	7022	0.69	0.01	1.0000 
	1	-1	-37	6488	2858	7231	-0.98	-0.25	1.0000 
	-1	-1	-38	368	204	247	-0.77	-0.65	1.0000 
	1	-1	-38	313	211	317	0.03	-0.3	1.0000 
	-1	-1	-38	232	116	137	-0.77	-0.65	1.0000 
	1	-1	-38	317	170	321	0.03	-0.3	1.0000 
	-2	0	0	1808346	24499	831705	-95.82	-0.04	1.0000 
	0	-2	0	1699745	22068	758526	-95.83	0.24	1.0000 
	2	0	0	1833789	24966	848989	-95.82	0.04	1.0000 
	0	2	0	1640049	20912	718824	-95.83	-0.24	1.0000 
	0	2	2	165276	2677	103935	18.62	1.13	1.0000 
	0	-2	2	161518	2477	100804	18.68	0.7	1.0000 
	-2	0	2	161807	2850	100819	18.75	0.85	1.0000 
	0	2	-2	152287	2312	93540	18.68	-0.7	1.0000 
	0	2	-2	150083	2269	91814	18.68	-0.7	1.0000 
	-2	0	2	162866	2862	101655	18.75	0.85	1.0000 
	-2	0	-2	160897	2839	100647	18.56	-0.97	1.0000 
	0	2	-2	161823	2487	101045	18.68	-0.7	1.0000 
	0	-2	-2	163153	2648	102253	18.62	-1.13	1.0000 
	2	0	2	159321	2793	99401	18.56	0.97	1.0000 
	0	2	2	162624	2631	101834	18.62	1.13	1.0000 
	0	-2	2	162535	2497	101608	18.68	0.7	1.0000 
	-2	0	2	161381	2837	100483	18.75	0.85	1.0000 
	0	-2	-4	128217	5576	215039	23.37	-1.29	1.0000 
	0	2	-4	129042	5420	216049	23.36	-1.02	1.0000 
	-2	0	4	129752	5716	216977	23.37	0.94	1.0000 
	-2	0	4	132092	5773	220000	23.37	0.94	1.0000 
	-2	0	-4	136652	5930	225952	23.37	-1.35	1.0000 
	2	0	4	138397	5920	228194	23.37	1.35	1.0000 
	0	2	-4	148901	6034	241537	23.36	-1.02	1.0000 
	-2	0	4	152213	6408	245761	23.37	0.94	1.0000 
	0	-2	6	86847	5654	220800	-38.77	2.23	1.0000 
	0	2	6	92509	6004	229718	-38.76	2.2	1.0000 
	-2	0	6	112878	6855	261368	-38.79	2.08	1.0000 
	0	2	8	7994	825	15587	7.85	0.29	1.0000 
	0	-2	8	8713	1040	16586	7.85	0.16	1.0000 
	-2	0	-8	8682	898	16554	7.86	-0.36	1.0000 
	0	-2	-8	8274	844	15977	7.85	-0.29	1.0000 
	0	2	-8	8207	1021	15885	7.85	-0.16	1.0000 
	0	-2	8	8902	935	16847	7.85	0.16	1.0000 
	0	2	8	8240	835	15929	7.85	0.29	1.0000 
	0	2	10	32508	1572	35607	-1.84	-1.64	1.0000 
	0	-2	10	33215	1880	36426	-1.89	-1.52	1.0000 
	0	2	-10	33435	1428	36657	-1.89	1.52	1.0000 
	0	2	10	32406	1562	35501	-1.84	-1.64	1.0000 
	0	-2	10	32667	1638	35852	-1.89	-1.52	1.0000 
	0	-2	12	7977	1131	5584	-3.92	-2.34	1.0000 
	0	2	12	8131	945	5763	-3.87	-2.4	1.0000 
	-2	0	12	7407	563	5127	-3.92	-2.43	1.0000 
	-2	0	-12	6890	866	4681	-3.87	2.28	1.0000 
	0	2	-12	6817	825	4605	-3.92	2.34	1.0000 
	0	-2	-12	6788	1808	4623	-3.87	2.4	1.0000 
	2	0	12	7046	643	4812	-3.87	-2.28	1.0000 
	0	-2	12	6742	1236	4542	-3.92	-2.34	1.0000 
	0	2	12	6231	816	4156	-3.87	-2.4	1.0000 
	-2	0	12	6210	529	4121	-3.92	-2.43	1.0000 
	0	-2	14	3721	662	5358	2.77	-1.4	1.0000 
	0	2	14	3862	937	5506	2.74	-1.53	1.0000 
	-2	0	14	4152	660	5845	2.73	-1.52	1.0000 
	-2	0	-14	4706	943	6536	2.77	1.37	1.0000 
	0	-2	-14	4157	2150	5859	2.74	1.53	1.0000 
	0	2	-14	4681	1072	6504	2.77	1.4	1.0000 
	2	0	14	5293	825	7227	2.77	-1.37	1.0000 
	0	-2	14	5077	820	6972	2.77	-1.4	1.0000 
	0	2	14	4360	1248	6101	2.74	-1.53	1.0000 
	-2	0	14	4617	769	6398	2.73	-1.52	1.0000 
	0	2	16	130134	5447	136693	-2	0.74	1.0000 
	-2	0	16	127990	6837	134412	-1.98	0.96	1.0000 
	-2	0	-16	135479	5627	141985	-1.95	-0.86	1.0000 
	0	2	16	134722	5631	141394	-2	0.74	1.0000 
	-2	0	16	133371	6071	139925	-1.98	0.96	1.0000 
	0	2	18	12353	1239	13031	0.69	-0.67	1.0000 
	-2	0	18	12669	1251	13362	0.7	-0.65	1.0000 
	-2	0	-18	11598	1721	12304	0.74	0.74	1.0000 
	0	-2	-18	12371	1334	13050	0.69	0.67	1.0000 
	2	0	-18	12731	1203	13425	0.7	0.65	1.0000 
	2	0	18	12163	1974	12886	0.74	-0.74	1.0000 
	0	2	18	12610	1291	13295	0.69	-0.67	1.0000 
	-2	0	18	12863	1264	13561	0.7	-0.65	1.0000 
	0	2	20	2113	455	1302	2.55	-1.37	1.0000 
	-2	0	20	2889	448	1947	2.52	-1.36	1.0000 
	-2	0	-20	1725	488	1001	2.52	1.35	1.0000 
	0	-2	-20	1907	320	1138	2.55	1.37	1.0000 
	2	0	-20	1876	407	1121	2.52	1.36	1.0000 
	2	0	20	1699	390	981	2.52	-1.35	1.0000 
	0	2	20	2238	412	1403	2.55	-1.37	1.0000 
	-2	0	20	2186	286	1369	2.52	-1.36	1.0000 
	-2	0	22	646	363	1526	-3.02	0.24	1.0000 
	0	2	22	239	571	854	-3.04	0.31	1.0000 
	-2	0	-22	530	351	1353	-3.04	-0.22	1.0000 
	0	-2	-22	460	526	1240	-3.04	-0.31	1.0000 
	0	2	-22	746	514	1676	-3.01	-0.17	1.0000 
	2	0	-22	581	321	1426	-3.02	-0.24	1.0000 
	2	0	22	909	646	1929	-3.04	0.22	1.0000 
	0	2	22	584	508	1440	-3.04	0.31	1.0000 
	-2	0	22	656	417	1541	-3.02	0.24	1.0000 
	-2	0	24	6851	2260	7913	1.37	-0.07	1.0000 
	-2	0	-24	6192	2146	7224	1.4	0.2	1.0000 
	0	2	-24	8158	2201	9315	1.37	0.11	1.0000 
	0	-2	-24	6815	2400	7882	1.38	0.16	1.0000 
	2	0	-24	6543	2145	7582	1.37	0.07	1.0000 
	2	0	24	7092	1922	8194	1.4	-0.2	1.0000 
	0	2	24	8425	2429	9607	1.38	-0.16	1.0000 
	0	-2	24	8229	2123	9391	1.37	-0.11	1.0000 
	-2	0	24	8732	2173	9926	1.37	-0.07	1.0000 
	-2	0	-24	5891	1828	6898	1.4	0.2	1.0000 
	0	-2	-24	7512	1691	8630	1.38	0.16	1.0000 
	2	0	-24	5732	1606	6707	1.37	0.07	1.0000 
	0	-2	24	7223	1273	8314	1.37	-0.11	1.0000 
	-2	0	-24	7504	1173	8636	1.4	0.2	1.0000 
	0	-2	-24	7505	1084	8623	1.38	0.16	1.0000 
	2	0	-24	7005	976	8079	1.37	0.07	1.0000 
	-2	0	26	4291	2159	4560	-0.43	-0.38	1.0000 
	-2	0	-26	5989	1975	6346	-0.49	0.43	1.0000 
	0	2	-26	8234	2111	8615	-0.44	0.43	1.0000 
	2	0	-26	6217	1982	6540	-0.43	0.38	1.0000 
	0	-2	-26	6628	1823	6990	-0.47	0.36	1.0000 
	2	0	26	8095	2026	8509	-0.49	-0.43	1.0000 
	0	-2	26	8715	1619	9107	-0.44	-0.43	1.0000 
	0	2	26	8333	2003	8739	-0.47	-0.36	1.0000 
	-2	0	26	8385	1851	8760	-0.43	-0.38	1.0000 
	-2	0	-26	6417	2032	6786	-0.49	0.43	1.0000 
	0	-2	-26	8357	2059	8764	-0.47	0.36	1.0000 
	0	2	-26	8357	1847	8741	-0.44	0.43	1.0000 
	2	0	-26	6702	1862	7037	-0.43	0.38	1.0000 
	0	-2	26	8149	1662	8528	-0.44	-0.43	1.0000 
	0	2	-26	9001	1522	9400	-0.44	0.43	1.0000 
	-2	0	-26	9005	1631	9442	-0.49	0.43	1.0000 
	0	-2	-26	8264	1473	8668	-0.47	0.36	1.0000 
	2	0	-26	6802	1205	7140	-0.43	0.38	1.0000 
	-2	0	-28	17244	3222	12541	-4.28	1.74	1.0000 
	2	0	-28	16854	2883	12275	-4.21	1.71	1.0000 
	0	2	-28	20955	2165	15763	-4.26	1.7	1.0000 
	0	-2	-28	18182	3039	13407	-4.22	1.76	1.0000 
	0	-2	-28	21824	1694	16564	-4.22	1.76	1.0000 
	-2	0	-28	23325	1789	17805	-4.28	1.74	1.0000 
	0	2	-28	22349	1465	16977	-4.26	1.7	1.0000 
	2	0	-28	17575	1536	12893	-4.21	1.71	1.0000 
	-2	0	-30	34463	5282	33431	0.65	0.62	1.0000 
	2	0	-30	30853	5718	29850	0.66	0.59	1.0000 
	0	-2	-30	31836	5204	30818	0.66	0.64	1.0000 
	0	2	-30	33575	6830	32553	0.65	0.56	1.0000 
	0	-2	-30	36900	6427	35805	0.66	0.64	1.0000 
	-2	0	-30	32521	5665	31519	0.65	0.62	1.0000 
	0	2	-30	32494	5476	31489	0.65	0.56	1.0000 
	2	0	-30	32211	5381	31186	0.66	0.59	1.0000 
	0	2	-32	21801	4135	20898	-0.67	1.2	1.0000 
	-2	0	-32	16419	5841	15618	-0.68	1.16	1.0000 
	0	-2	-32	16540	6225	15719	-0.69	1.16	1.0000 
	2	0	-32	16269	5985	15477	-0.67	1.17	1.0000 
	-2	0	-32	17750	2833	16918	-0.68	1.16	1.0000 
	2	0	-32	18173	2806	17337	-0.67	1.17	1.0000 
	0	-2	-32	18295	2870	17432	-0.69	1.16	1.0000 
	0	2	-32	15763	5297	14992	-0.67	1.2	1.0000 
	0	-2	-34	38901	6609	38517	0.21	-0.43	1.0000 
	0	2	-34	33731	6012	33315	0.24	-0.47	1.0000 
	-2	0	-34	33824	6435	33451	0.22	-0.42	1.0000 
	2	0	-34	35776	6462	35335	0.25	-0.47	1.0000 
	-2	0	-34	35971	7026	35586	0.22	-0.42	1.0000 
	0	2	-34	34930	6645	34507	0.24	-0.47	1.0000 
	2	0	-34	35876	6551	35435	0.25	-0.47	1.0000 
	0	-2	-36	11085	3522	11880	0.82	-0.08	1.0000 
	-2	0	-36	10161	3344	10902	0.8	-0.09	1.0000 
	0	2	-36	12796	3679	13626	0.8	-0.14	1.0000 
	2	0	-36	10939	3387	11729	0.82	-0.13	1.0000 
	-2	0	-36	10340	2884	11087	0.8	-0.09	1.0000 
	0	2	-36	10580	2993	11335	0.8	-0.14	1.0000 
	2	0	-36	10992	2983	11784	0.82	-0.13	1.0000 
	0	-2	-36	12618	3375	13465	0.82	-0.08	1.0000 
	-2	0	-38	1583	482	1287	0.88	-0.57	1.0000 
	0	2	-38	1403	467	1121	0.9	-0.59	1.0000 
	0	-2	-38	1418	538	1135	0.89	-0.55	1.0000 
	2	0	-38	2091	620	1741	0.9	-0.55	1.0000 
	-2	0	-38	1657	489	1354	0.88	-0.57	1.0000 
	0	-2	-38	1192	396	934	0.89	-0.55	1.0000 
	0	2	-38	984	326	749	0.9	-0.59	1.0000 
	2	0	-38	1655	467	1345	0.9	-0.55	1.0000 
	-1	2	0	402771	9086	369282	-5.97	-0.33	1.0000 
	-2	1	0	408625	9449	374891	-5.96	-0.51	1.0000 
	-1	2	0	398443	8980	365138	-5.97	-0.33	1.0000 
	-2	1	0	406923	9397	373261	-5.96	-0.51	1.0000 
	-1	-2	0	404106	9236	373069	-5.51	0.25	1.0000 
	1	-2	0	414414	9364	380434	-5.97	0.33	1.0000 
	1	2	0	417042	9540	385502	-5.51	-0.25	1.0000 
	1	2	0	405464	9239	374374	-5.51	-0.25	1.0000 
	2	-1	0	376136	8666	343800	-5.96	0.51	1.0000 
	-1	2	0	405398	9131	371798	-5.97	-0.33	1.0000 
	2	1	0	402619	9330	371602	-5.52	-0.23	1.0000 
	-1	-2	0	432363	9871	400238	-5.51	0.25	1.0000 
	-1	2	0	398940	8997	365614	-5.97	-0.33	1.0000 
	-1	2	1	71873	862	27530	22.66	-1.13	1.0000 
	-2	1	1	74165	1170	28806	22.74	-0.77	1.0000 
	-1	2	-1	69230	788	25750	22.74	0.35	1.0000 
	-1	-2	1	67952	858	26276	-21.84	-0.41	1.0000 
	1	-2	-1	70521	856	26695	22.66	1.13	1.0000 
	-2	1	1	73563	1155	28431	22.74	-0.77	1.0000 
	1	-2	-1	69275	830	25930	22.66	1.13	1.0000 
	-1	2	-1	67299	753	24577	22.74	0.35	1.0000 
	-1	-2	1	66797	832	25560	-21.84	-0.41	1.0000 
	-2	1	-1	71695	1018	27428	22.64	0.71	1.0000 
	-1	-2	-1	66407	851	25346	-21.81	0.22	1.0000 
	1	-2	1	67738	756	24843	22.74	-0.35	1.0000 
	1	2	-1	67067	840	25727	-21.84	0.41	1.0000 
	1	2	1	66813	850	25597	-21.81	-0.22	1.0000 
	2	1	1	68352	1285	26588	-21.79	-0.34	1.0000 
	2	-1	1	71521	979	27320	22.64	-0.71	1.0000 
	2	1	-1	61651	871	22407	-21.84	0.26	1.0000 
	1	2	1	66295	1010	25277	-21.81	-0.22	1.0000 
	-1	-2	1	67491	828	25990	-21.84	-0.41	1.0000 
	-1	-2	-1	65535	806	24808	-21.81	0.22	1.0000 
	-1	2	-1	66846	732	24304	22.74	0.35	1.0000 
	-1	2	1	66472	779	24225	22.66	-1.13	1.0000 
	1	-2	-1	66657	794	24337	22.66	1.13	1.0000 
	-1	2	-1	64858	719	23111	22.74	0.35	1.0000 
	-2	1	1	69649	1010	26017	22.74	-0.77	1.0000 
	-1	-2	1	64620	803	24220	-21.84	-0.41	1.0000 
	-1	2	2	43315	1380	47098	1.84	-1.72	1.0000 
	-1	-2	2	44319	1352	46493	1.08	-0.84	1.0000 
	-2	1	2	43918	1614	47839	1.9	-1.72	1.0000 
	1	-2	-2	44272	1416	48096	1.84	1.72	1.0000 
	1	-2	-2	45196	1432	49060	1.84	1.72	1.0000 
	-2	1	2	45484	1680	49473	1.9	-1.72	1.0000 
	-1	-2	2	45277	1369	47474	1.08	-0.84	1.0000 
	1	2	-2	46080	1433	48296	1.08	0.84	1.0000 
	-2	1	-2	44217	1713	48029	1.87	1.42	1.0000 
	-1	2	-2	43027	1312	46908	1.93	1.43	1.0000 
	-1	-2	-2	47404	1487	49857	1.16	1.08	1.0000 
	1	-2	2	45272	1354	49252	1.93	-1.43	1.0000 
	1	2	2	45618	1425	48025	1.16	-1.08	1.0000 
	2	-1	2	45609	1589	49480	1.87	-1.42	1.0000 
	-1	-2	2	47593	1415	49845	1.08	-0.84	1.0000 
	1	-2	2	45548	1355	49540	1.93	-1.43	1.0000 
	2	1	2	46867	1571	49320	1.18	-0.99	1.0000 
	1	2	2	48205	1542	50679	1.16	-1.08	1.0000 
	-1	-2	-2	47868	1461	50333	1.16	1.08	1.0000 
	-1	2	-2	45933	1364	49941	1.93	1.43	1.0000 
	-1	2	2	47739	1498	51709	1.84	-1.72	1.0000 
	-1	-2	2	48876	1463	51158	1.08	-0.84	1.0000 
	1	-2	-2	48312	1518	52306	1.84	1.72	1.0000 
	-2	1	2	48172	1715	52277	1.9	-1.72	1.0000 
	-1	2	3	197871	8109	323556	27.36	-5.68	1.0000 
	-1	-2	3	204528	8047	322881	-25.59	2.92	1.0000 
	1	-2	-3	207324	8425	335626	27.36	5.68	1.0000 
	-2	1	3	206057	8521	334172	27.4	-5.41	1.0000 
	1	2	-3	212509	8329	332891	-25.59	-2.92	1.0000 
	-1	-2	3	207494	8132	326605	-25.59	2.92	1.0000 
	1	-2	-3	203369	8291	330583	27.36	5.68	1.0000 
	-2	1	3	203817	8436	331315	27.4	-5.41	1.0000 
	1	2	-3	211121	8278	331153	-25.59	-2.92	1.0000 
	-2	1	-3	194057	8121	318825	27.4	5.5	1.0000 
	-1	2	-3	191009	7824	315171	27.46	5.27	1.0000 
	-1	-2	-3	206349	8176	324978	-25.53	-3.35	1.0000 
	1	-2	3	191405	7810	315680	27.46	-5.27	1.0000 
	-1	-2	3	189786	7578	304284	-25.59	2.92	1.0000 
	2	1	3	199469	8046	316391	-25.55	3.3	1.0000 
	1	-2	3	191560	7812	315879	27.46	-5.27	1.0000 
	2	-1	3	190972	7972	314863	27.4	-5.5	1.0000 
	1	2	3	199793	7940	316736	-25.53	3.35	1.0000 
	-1	2	3	195112	8036	320021	27.36	-5.68	1.0000 
	-2	1	3	197649	8260	323430	27.4	-5.41	1.0000 
	1	-2	-3	197810	8129	323478	27.36	5.68	1.0000 
	-1	-2	3	198219	7858	314940	-25.59	2.92	1.0000 
	-1	2	4	59602	1787	59536	0.02	-0.85	1.0000 
	-1	-2	4	56168	1641	56138	0.01	-0.2	1.0000 
	-2	1	4	57775	1849	57595	0.08	-0.76	1.0000 
	-2	1	4	57638	1837	57459	0.08	-0.76	1.0000 
	-2	1	-4	56299	1791	56243	0.02	0.7	1.0000 
	-1	2	-4	54222	1748	54011	0.09	0.62	1.0000 
	-1	-2	-4	57463	1755	57451	0	0.16	1.0000 
	2	-1	4	56208	1732	56152	0.02	-0.7	1.0000 
	1	2	4	55690	1676	55678	0	-0.16	1.0000 
	1	-2	4	52387	1482	52180	0.09	-0.62	1.0000 
	2	1	4	56473	1789	56359	0.05	-0.32	1.0000 
	-1	2	4	56479	1723	56414	0.02	-0.85	1.0000 
	-1	-2	4	51416	1522	51388	0.01	-0.2	1.0000 
	-2	1	4	53761	1752	53587	0.08	-0.76	1.0000 
	-1	-2	5	205630	8833	352159	31.01	-0.5	1.0000 
	-1	2	5	248659	9221	364487	-23.29	-1.9	1.0000 
	-2	1	5	248227	9318	364233	-23.34	-1.96	1.0000 
	-2	1	-5	248977	9293	364425	-23.21	2.15	1.0000 
	-1	2	-5	242877	8941	357331	-23.26	2.18	1.0000 
	-1	-2	-5	224381	9532	376559	31	0.39	1.0000 
	1	-2	5	241245	8852	355350	-23.26	-2.18	1.0000 
	2	1	5	213780	9249	363014	31.04	-0.48	1.0000 
	2	-1	5	250728	9286	366543	-23.21	-2.15	1.0000 
	1	2	5	219359	9339	370045	31	-0.39	1.0000 
	-1	-2	5	209811	8975	357625	31.01	-0.5	1.0000 
	-2	1	5	244692	9216	359948	-23.34	-1.96	1.0000 
	-1	-2	6	54764	1457	45395	-4.64	0.89	1.0000 
	-2	-1	6	54392	1576	45072	-4.64	1.08	1.0000 
	-2	1	6	49554	1660	46977	-1.3	-0.23	1.0000 
	-2	1	-6	46581	1548	44028	-1.33	0.33	1.0000 
	-1	2	-6	46360	1421	43945	-1.26	0.33	1.0000 
	1	-2	6	46594	1387	44172	-1.26	-0.33	1.0000 
	2	1	6	60348	1718	50342	-4.72	0.82	1.0000 
	2	-1	6	47288	1518	44715	-1.33	-0.33	1.0000 
	1	2	6	53322	1497	43944	-4.72	1.01	1.0000 
	-2	1	6	47220	1598	44705	-1.3	-0.23	1.0000 
	-1	-2	6	54421	1809	45082	-4.64	0.89	1.0000 
	-2	-1	6	52775	1539	43601	-4.64	1.08	1.0000 
	-1	2	7	215275	5252	194793	-5	-0.6	1.0000 
	-2	1	7	219934	5409	198957	-5.06	-0.74	1.0000 
	-1	-2	7	248812	5375	204136	10.37	-3.24	1.0000 
	-2	-1	7	244424	5418	200404	10.31	-3.29	1.0000 
	-2	1	-7	231267	5670	210270	-4.93	0.82	1.0000 
	-1	2	-7	239196	5708	217577	-4.99	0.98	1.0000 
	2	-1	7	239245	5793	217880	-4.93	-0.82	1.0000 
	2	1	7	264695	5863	218413	10.4	-3.1	1.0000 
	1	2	7	244515	5383	200367	10.34	-3.2	1.0000 
	1	-2	7	242792	5746	221008	-4.99	-0.98	1.0000 
	-1	2	7	225342	5504	204375	-5	-0.6	1.0000 
	-1	-2	7	263380	5712	217357	10.37	-3.24	1.0000 
	-2	-1	7	248997	5516	204549	10.31	-3.29	1.0000 
	-2	1	7	229140	5635	207718	-5.06	-0.74	1.0000 
	-2	-1	8	41791	2401	55514	-6.9	0.67	1.0000 
	-2	1	8	45866	2052	59397	-6.54	0.14	1.0000 
	-2	1	-8	35993	1738	48240	-6.62	0.25	1.0000 
	-1	-2	8	46459	1968	60940	-6.93	0.37	1.0000 
	-2	-1	8	41476	2446	55151	-6.9	0.67	1.0000 
	-2	1	8	47398	2116	61139	-6.54	0.14	1.0000 
	-1	-2	9	167878	5398	199595	8.23	-1.44	1.0000 
	-1	2	9	176830	5213	187511	-2.72	1.74	1.0000 
	-2	-1	9	160315	5287	191239	8.21	-1.51	1.0000 
	-2	1	-9	185755	5574	196936	-2.78	-1.7	1.0000 
	1	2	9	170387	5612	202437	8.26	-1.67	1.0000 
	-1	-2	9	174214	5590	206499	8.23	-1.44	1.0000 
	-1	2	9	181519	5351	192340	-2.72	1.74	1.0000 
	-2	-1	9	166101	5465	197554	8.21	-1.51	1.0000 
	-1	2	10	10953	931	16319	5.1	0.33	1.0000 
	-1	-2	10	14790	1004	20695	4.9	0.7	1.0000 
	-1	-2	-10	6225	6830	10321	4.99	-0.89	1.0000 
	-1	2	-10	13266	4767	19194	5.16	-0.34	1.0000 
	2	-1	10	13716	2301	19637	5.09	0.24	1.0000 
	1	-2	10	12476	2882	18242	5.16	0.34	1.0000 
	1	2	10	7221	5613	11594	4.99	0.89	1.0000 
	-2	-1	10	15971	1138	22127	4.92	0.85	1.0000 
	-1	-2	11	179124	5868	213028	-8.49	0.06	1.0000 
	-1	2	11	201181	5909	208266	1.76	1.49	1.0000 
	-2	-1	11	177597	5907	211399	-8.49	-0.16	1.0000 
	-1	2	11	189862	5635	196745	1.76	1.49	1.0000 
	-1	-2	11	170274	5653	203366	-8.49	0.06	1.0000 
	-2	-1	11	170132	5736	203248	-8.49	-0.16	1.0000 
	-1	-2	12	5933	519	4950	1.64	-1.2	1.0000 
	-2	1	12	6347	539	4814	2.28	0.07	1.0000 
	-2	-1	12	6721	1521	5642	1.63	-0.87	1.0000 
	-2	1	-12	3281	1662	2260	2.15	-0.13	1.0000 
	-1	-2	-12	8382	1202	7064	1.77	0.83	1.0000 
	-1	2	-12	2434	2078	1537	2.24	-0.08	1.0000 
	2	-1	12	4067	1457	2920	2.15	0.13	1.0000 
	1	-2	12	1950	1937	1158	2.24	0.08	1.0000 
	1	2	12	6880	1029	5689	1.77	-0.83	1.0000 
	2	1	12	5361	2795	4345	1.77	-1.15	1.0000 
	-2	1	12	6104	538	4603	2.28	0.07	1.0000 
	-2	-1	12	5939	1381	4926	1.63	-0.87	1.0000 
	-1	-2	13	119926	4117	117026	-0.93	-0.03	1.0000 
	-2	-1	13	121627	4228	118718	-0.92	-0.27	1.0000 
	-1	2	13	120176	4276	119099	0.39	1.49	1.0000 
	-2	1	13	121497	4337	120411	0.39	1.62	1.0000 
	-1	-2	-13	122462	4334	119467	-0.95	0.25	1.0000 
	1	-2	-13	109807	3965	108776	0.39	-1.49	1.0000 
	1	2	-13	117975	4442	115099	-0.93	0.03	1.0000 
	1	2	13	119519	4224	116560	-0.95	-0.25	1.0000 
	-1	-2	13	113420	3946	110600	-0.93	-0.03	1.0000 
	-1	2	13	113606	4105	112558	0.39	1.49	1.0000 
	-2	1	13	118053	4266	116981	0.39	1.62	1.0000 
	-2	-1	13	118089	4159	115223	-0.92	-0.27	1.0000 
	-2	-1	14	6646	1809	7648	1.32	-0.16	1.0000 
	-1	-2	14	6968	1039	7944	1.27	-0.24	1.0000 
	-2	1	14	11043	862	9385	-1.79	-0.81	1.0000 
	-2	1	-14	7349	710	6001	-1.8	0.71	1.0000 
	-2	-1	-14	5115	4523	5984	1.31	0.42	1.0000 
	-1	-2	-14	5347	3920	6283	1.38	0.34	1.0000 
	1	2	-14	5764	662	6654	1.27	0.24	1.0000 
	1	2	14	4858	3224	5752	1.38	-0.34	1.0000 
	2	-1	14	7450	678	6093	-1.8	-0.71	1.0000 
	-1	-2	14	5592	642	6469	1.27	-0.24	1.0000 
	-1	2	14	8483	750	7036	-1.79	-0.66	1.0000 
	-2	-1	14	6118	1800	7081	1.32	-0.16	1.0000 
	-2	1	14	10902	866	9255	-1.79	-0.81	1.0000 
	-1	-2	15	51356	2713	54396	-1.46	0.14	1.0000 
	-2	1	15	45475	3526	52089	3.32	-0.11	1.0000 
	-1	2	15	37978	2148	44185	3.39	-0.16	1.0000 
	-2	-1	15	50973	2657	53953	-1.44	0.22	1.0000 
	-2	-1	-15	46298	2624	49202	-1.47	-0.14	1.0000 
	-2	1	-15	40975	4375	47465	3.42	0.14	1.0000 
	-1	-2	-15	45543	2347	48373	-1.45	-0.18	1.0000 
	1	-2	-15	38862	3090	45138	3.39	0.16	1.0000 
	2	1	15	47827	3628	50777	-1.47	0.14	1.0000 
	2	-1	15	41839	4235	48394	3.42	-0.14	1.0000 
	1	2	15	46955	2466	49828	-1.45	0.18	1.0000 
	-1	-2	15	48542	2781	51499	-1.46	0.14	1.0000 
	-1	2	15	39904	3119	46261	3.39	-0.16	1.0000 
	-2	-1	15	47499	2527	50377	-1.44	0.22	1.0000 
	-2	1	15	40273	3733	46510	3.32	-0.11	1.0000 
	-1	2	16	66270	3149	68307	-0.86	-0.51	1.0000 
	-2	-1	16	80539	4871	83342	-1.08	-0.14	1.0000 
	-2	-1	-16	72773	4020	75636	-1.16	0.1	1.0000 
	-2	1	-16	70651	7050	72803	-0.87	0.58	1.0000 
	-1	-2	-16	71286	4460	74000	-1.11	0.18	1.0000 
	1	-2	-16	73416	3346	75560	-0.86	0.51	1.0000 
	1	2	16	71799	4074	74522	-1.11	-0.18	1.0000 
	2	-1	16	75808	3652	78037	-0.87	-0.58	1.0000 
	2	1	16	74483	3938	77379	-1.16	-0.1	1.0000 
	-1	2	16	75798	3434	77976	-0.86	-0.51	1.0000 
	-2	-1	16	74658	3691	77358	-1.08	-0.14	1.0000 
	-1	2	17	2432	974	3202	1.56	0.73	1.0000 
	-2	-1	17	2995	617	3717	-1.4	-0.92	1.0000 
	-2	1	17	2361	876	3105	1.53	0.7	1.0000 
	-2	1	-17	1714	983	2394	1.62	-0.74	1.0000 
	-2	-1	-17	1638	914	2183	-1.42	1.21	1.0000 
	-1	-2	-17	1791	619	2367	-1.43	1.1	1.0000 
	1	-2	-17	1716	802	2370	1.56	-0.73	1.0000 
	1	2	17	2208	730	2846	-1.43	-1.1	1.0000 
	2	1	17	1996	951	2597	-1.42	-1.21	1.0000 
	2	-1	17	2130	1027	2882	1.62	0.74	1.0000 
	-1	2	17	2312	885	3064	1.56	0.73	1.0000 
	-2	1	17	2455	871	3213	1.53	0.7	1.0000 
	-2	-1	17	2449	738	3104	-1.4	-0.92	1.0000 
	-1	2	18	1000	263	760	-0.89	-0.1	1.0000 
	-2	-1	18	1335	242	994	-1.07	-0.37	1.0000 
	-2	1	18	1150	316	894	-0.88	-0.1	1.0000 
	-2	1	-18	448	220	295	-0.88	0.07	1.0000 
	-2	-1	-18	659	394	428	-1.06	0.45	1.0000 
	-1	-2	-18	766	355	508	-1.09	0.42	1.0000 
	2	-1	-18	794	194	584	-0.88	0.1	1.0000 
	2	1	-18	725	229	480	-1.07	0.37	1.0000 
	1	-2	-18	423	313	273	-0.89	0.1	1.0000 
	2	-1	18	614	186	432	-0.88	-0.07	1.0000 
	1	2	18	918	255	633	-1.09	-0.42	1.0000 
	2	1	18	709	250	469	-1.06	-0.45	1.0000 
	-2	1	18	666	210	475	-0.88	-0.1	1.0000 
	-2	-1	18	685	177	448	-1.07	-0.37	1.0000 
	-1	2	18	655	375	464	-0.89	-0.1	1.0000 
	-1	2	19	29707	2290	33753	-2.53	0.47	1.0000 
	-2	-1	19	35426	6109	33844	-0.96	-0.37	1.0000 
	-2	1	19	29611	2663	33643	-2.53	0.42	1.0000 
	-2	1	-19	29439	2804	33518	-2.57	-0.57	1.0000 
	-2	-1	-19	33446	2808	32065	-0.86	0.45	1.0000 
	-1	-2	-19	32950	2499	31463	-0.94	0.48	1.0000 
	1	-2	-19	28458	2184	32421	-2.53	-0.47	1.0000 
	2	1	-19	34057	3220	32506	-0.96	0.37	1.0000 
	2	-1	-19	27644	2909	31544	-2.53	-0.42	1.0000 
	2	1	19	34659	2357	33253	-0.86	-0.45	1.0000 
	1	2	19	34544	2520	33022	-0.94	-0.48	1.0000 
	-1	2	19	28188	2403	32133	-2.53	0.47	1.0000 
	-2	-1	19	32274	6397	30765	-0.96	-0.37	1.0000 
	-2	1	19	28740	2914	32714	-2.53	0.42	1.0000 
	-1	2	20	3548	1040	3279	-0.52	-0.11	1.0000 
	-2	1	20	4019	665	3724	-0.54	-0.21	1.0000 
	-2	-1	20	4042	765	3449	-1.07	0.79	1.0000 
	-2	-1	-20	2084	873	1696	-0.97	-0.76	1.0000 
	-2	1	-20	1842	699	1658	-0.49	-0.04	1.0000 
	-1	-2	-20	3193	1062	2675	-1.05	-0.75	1.0000 
	1	-2	-20	3239	741	2982	-0.52	0.11	1.0000 
	2	1	-20	3542	1066	2988	-1.07	-0.79	1.0000 
	2	-1	-20	3337	679	3069	-0.54	0.21	1.0000 
	2	-1	20	3786	784	3520	-0.49	0.04	1.0000 
	1	2	20	3656	981	3101	-1.05	0.75	1.0000 
	2	1	20	2476	941	2052	-0.97	0.76	1.0000 
	-2	-1	20	4346	823	3731	-1.07	0.79	1.0000 
	-1	2	20	3563	1009	3293	-0.52	-0.11	1.0000 
	-2	1	20	2881	805	2632	-0.54	-0.21	1.0000 
	-2	-1	21	58286	4281	66622	-3.72	0.73	1.0000 
	-2	1	21	74350	4090	70682	-1.5	0.15	1.0000 
	-1	2	21	67498	4942	63899	-1.55	0.13	1.0000 
	-2	-1	-21	56622	4957	64633	-3.63	-0.77	1.0000 
	-2	1	-21	68335	5818	64800	-1.51	-0.15	1.0000 
	1	-2	-21	66538	5273	62965	-1.55	-0.13	1.0000 
	-1	-2	-21	55427	4680	63510	-3.7	-0.74	1.0000 
	2	-1	-21	73069	4035	69433	-1.5	-0.15	1.0000 
	2	1	-21	57237	5333	65500	-3.72	-0.73	1.0000 
	2	1	21	56807	4700	64831	-3.63	0.77	1.0000 
	2	-1	21	73694	4136	70021	-1.51	0.15	1.0000 
	1	2	21	57796	5076	66045	-3.7	0.74	1.0000 
	-1	2	21	68461	4974	64836	-1.55	0.13	1.0000 
	-2	1	21	74452	4097	70781	-1.5	0.15	1.0000 
	-2	-1	21	57001	4308	65248	-3.72	0.73	1.0000 
	-1	2	22	9115	3505	9429	-0.32	1.44	1.0000 
	-2	-1	22	12430	2615	12397	0.05	0.79	1.0000 
	-2	1	22	11334	2316	11722	-0.36	1.37	1.0000 
	-2	-1	-22	10719	2806	10687	0.05	-0.68	1.0000 
	-2	1	-22	9935	2597	10287	-0.34	-1.5	1.0000 
	-1	-2	-22	10116	2758	10062	0.07	-0.67	1.0000 
	1	-2	-22	10692	2767	11035	-0.32	-1.44	1.0000 
	-1	2	-22	10882	2862	11280	-0.37	-1.43	1.0000 
	2	-1	-22	9564	1981	9918	-0.36	-1.37	1.0000 
	2	1	-22	10468	3629	10437	0.05	-0.79	1.0000 
	2	-1	22	9146	2566	9482	-0.34	1.5	1.0000 
	2	1	22	10583	2922	10551	0.05	0.68	1.0000 
	1	2	22	10639	3056	10584	0.07	0.67	1.0000 
	1	-2	22	11735	2732	12149	-0.37	1.43	1.0000 
	-1	2	22	10869	3100	11215	-0.32	1.44	1.0000 
	-2	1	22	9560	2243	9914	-0.36	1.37	1.0000 
	-2	-1	22	12634	2517	12601	0.05	0.79	1.0000 
	-2	-1	23	66061	5871	76571	4.38	-0.42	1.0000 
	-1	2	23	78119	4858	85758	-2.98	-0.72	1.0000 
	-2	1	23	68726	7702	75915	-2.98	-0.68	1.0000 
	-2	-1	-23	61891	9151	72121	4.39	0.35	1.0000 
	-1	2	-23	79567	5099	87177	-2.94	0.67	1.0000 
	-1	-2	-23	63605	5380	73895	4.36	0.37	1.0000 
	1	-2	-23	67816	7273	74945	-2.98	0.72	1.0000 
	2	1	-23	68744	5583	79458	4.38	0.42	1.0000 
	2	-1	-23	69396	7718	76619	-2.98	0.68	1.0000 
	2	1	23	72867	8704	83935	4.39	-0.35	1.0000 
	2	-1	23	72108	6068	79344	-2.93	-0.67	1.0000 
	1	-2	23	75780	5889	83211	-2.94	-0.67	1.0000 
	1	2	23	67571	5631	78165	4.36	-0.37	1.0000 
	-1	2	23	73749	8588	81176	-2.98	-0.72	1.0000 
	-2	1	23	74886	7189	82383	-2.98	-0.68	1.0000 
	-2	-1	23	67309	6177	77915	4.38	-0.42	1.0000 
	-1	-2	24	7510	3844	7726	0.27	0.01	1.0000 
	-2	1	24	12566	3164	11906	-0.66	-0.13	1.0000 
	-1	2	24	9640	4232	9072	-0.65	-0.08	1.0000 
	-2	-1	24	11990	2730	12270	0.28	0.01	1.0000 
	-1	-2	-24	11240	3051	11489	0.26	-0.07	1.0000 
	-2	-1	-24	12448	3288	12696	0.24	-0.06	1.0000 
	-1	2	-24	14422	4067	13719	-0.65	0.24	1.0000 
	1	-2	-24	13203	3335	12536	-0.65	0.08	1.0000 
	1	2	-24	13187	3189	13473	0.27	-0.01	1.0000 
	2	1	-24	13068	3624	13361	0.28	-0.01	1.0000 
	2	-1	-24	12898	3126	12229	-0.66	0.13	1.0000 
	2	1	24	13339	3493	13596	0.24	0.06	1.0000 
	1	2	24	12787	3560	13053	0.26	0.07	1.0000 
	-1	-2	24	17336	2982	17664	0.27	0.01	1.0000 
	-1	2	24	15005	3205	14294	-0.65	-0.08	1.0000 
	1	-2	24	18608	3084	17808	-0.65	-0.24	1.0000 
	-2	1	24	15772	3009	15031	-0.66	-0.13	1.0000 
	-2	-1	24	15618	2664	15938	0.28	0.01	1.0000 
	-2	-1	-24	13374	2908	13631	0.24	-0.06	1.0000 
	1	-2	-24	14871	2322	14163	-0.65	0.08	1.0000 
	-1	2	-24	13333	2345	12657	-0.65	0.24	1.0000 
	1	2	-24	12680	2165	12960	0.27	-0.01	1.0000 
	-1	-2	-24	13033	2423	13301	0.26	-0.07	1.0000 
	2	-1	-24	14065	2106	13366	-0.66	0.13	1.0000 
	-1	-2	24	13145	1989	13430	0.27	0.01	1.0000 
	-2	-1	-24	17163	2306	17454	0.24	-0.06	1.0000 
	-1	-2	-24	18004	2126	18319	0.26	-0.07	1.0000 
	-1	2	-24	19255	2343	18441	-0.65	0.24	1.0000 
	1	-2	-24	19415	2177	18605	-0.65	0.08	1.0000 
	1	2	-24	18314	2298	18651	0.27	-0.01	1.0000 
	2	-1	-24	17307	2023	16530	-0.66	0.13	1.0000 
	-2	1	25	16443	5659	16712	0.19	0.77	1.0000 
	-1	2	25	27463	3296	27811	0.19	0.76	1.0000 
	-2	-1	25	16594	5455	17554	-0.81	0.19	1.0000 
	-1	-2	25	12761	6710	13619	-0.82	0.2	1.0000 
	-2	-1	-25	20504	5786	21627	-0.85	-0.16	1.0000 
	-1	-2	-25	19988	5187	21102	-0.85	-0.15	1.0000 
	-1	2	-25	27158	5462	27459	0.16	-0.75	1.0000 
	2	1	-25	20842	5402	21917	-0.81	-0.19	1.0000 
	2	-1	-25	21951	5421	22263	0.19	-0.77	1.0000 
	1	-2	-25	22625	5444	22940	0.19	-0.76	1.0000 
	1	2	-25	26900	5264	28139	-0.82	-0.2	1.0000 
	2	1	25	24272	4936	25492	-0.85	0.16	1.0000 
	1	-2	25	30288	3909	30607	0.16	0.75	1.0000 
	-1	-2	25	29916	4364	31222	-0.82	0.2	1.0000 
	1	2	25	28452	5214	29778	-0.85	0.15	1.0000 
	-1	2	25	29072	4693	29430	0.19	0.76	1.0000 
	-2	-1	25	31666	4374	32988	-0.81	0.19	1.0000 
	-2	1	25	29308	4408	29670	0.19	0.77	1.0000 
	-2	-1	-25	24117	4034	25333	-0.85	-0.16	1.0000 
	1	-2	-25	26513	4155	26855	0.19	-0.76	1.0000 
	-1	2	-25	24134	4033	24418	0.16	-0.75	1.0000 
	-1	-2	-25	25183	4387	26432	-0.85	-0.15	1.0000 
	1	2	-25	23766	4096	24932	-0.82	-0.2	1.0000 
	2	-1	-25	25443	3967	25780	0.19	-0.77	1.0000 
	-2	-1	25	14260	2556	15151	-0.81	0.19	1.0000 
	-1	-2	25	22858	3041	24001	-0.82	0.2	1.0000 
	-1	-2	-25	26631	2978	27915	-0.85	-0.15	1.0000 
	-2	-1	-25	30270	3605	31631	-0.85	-0.16	1.0000 
	-1	2	-25	28042	3037	28348	0.16	-0.75	1.0000 
	1	-2	-25	27286	2951	27633	0.19	-0.76	1.0000 
	1	2	-25	26744	3078	27980	-0.82	-0.2	1.0000 
	2	-1	-25	24774	2640	25106	0.19	-0.77	1.0000 
	-1	-2	26	7116	3225	5773	1.85	0.31	1.0000 
	-1	2	26	7842	3090	6629	1.57	0.73	1.0000 
	-2	1	26	8626	2890	7348	1.57	0.63	1.0000 
	-1	2	-26	13277	2943	11667	1.59	-0.62	1.0000 
	-1	-2	-26	11611	2654	9921	1.8	-0.41	1.0000 
	-2	-1	-26	11671	2922	9944	1.83	-0.42	1.0000 
	2	-1	-26	12446	2619	10902	1.57	-0.63	1.0000 
	1	2	-26	14027	2853	12113	1.85	-0.31	1.0000 
	1	-2	-26	11858	2540	10357	1.57	-0.73	1.0000 
	1	-2	26	15764	2707	14006	1.59	0.62	1.0000 
	2	1	26	13803	2858	11919	1.83	0.42	1.0000 
	1	2	26	15805	3193	13823	1.8	0.41	1.0000 
	-1	2	26	14557	2652	12890	1.57	0.73	1.0000 
	-1	-2	26	16393	2467	14318	1.85	0.31	1.0000 
	-2	1	26	14008	2540	12367	1.57	0.63	1.0000 
	-2	-1	-26	13041	3124	11211	1.83	-0.42	1.0000 
	-1	2	-26	14562	2898	12874	1.59	-0.62	1.0000 
	1	-2	-26	15007	2784	13313	1.57	-0.73	1.0000 
	-1	-2	-26	13647	2895	11810	1.8	-0.41	1.0000 
	1	2	-26	14632	2588	12676	1.85	-0.31	1.0000 
	2	-1	-26	14481	2425	12812	1.57	-0.63	1.0000 
	-2	-1	26	7888	1383	6494	1.82	0.32	1.0000 
	-1	-2	26	12997	2125	11157	1.85	0.31	1.0000 
	-1	-2	-26	14718	2218	12808	1.8	-0.41	1.0000 
	-1	2	-26	14495	2093	12811	1.59	-0.62	1.0000 
	-2	-1	-26	16480	2478	14415	1.83	-0.42	1.0000 
	1	-2	-26	14062	2013	12424	1.57	-0.73	1.0000 
	1	2	-26	15539	2110	13521	1.85	-0.31	1.0000 
	2	-1	-26	13712	1915	12089	1.57	-0.63	1.0000 
	-2	1	27	8354	4746	10219	-2.16	0.27	1.0000 
	-2	-1	-27	15902	4399	14230	-1.5	-0.17	1.0000 
	-1	2	-27	17635	4152	20273	-2.14	-0.28	1.0000 
	-1	-2	-27	16575	4489	14874	-1.5	-0.16	1.0000 
	2	-1	-27	12300	4205	14544	-2.16	-0.27	1.0000 
	1	2	-27	22582	4469	20587	-1.5	-0.21	1.0000 
	1	-2	-27	12478	4030	14764	-2.19	-0.31	1.0000 
	1	-2	27	20295	3926	23119	-2.14	0.28	1.0000 
	1	2	27	21755	4332	19800	-1.5	0.16	1.0000 
	2	1	27	19192	4414	17351	-1.5	0.17	1.0000 
	-2	1	27	15185	3819	17668	-2.16	0.27	1.0000 
	-1	2	27	16340	3853	18943	-2.19	0.31	1.0000 
	-1	-2	27	26642	3761	24471	-1.5	0.21	1.0000 
	-1	2	-27	19115	4263	21858	-2.14	-0.28	1.0000 
	-2	-1	-27	23618	4030	21571	-1.5	-0.17	1.0000 
	-1	-2	-27	23131	3389	21114	-1.5	-0.16	1.0000 
	1	2	-27	24359	4157	22285	-1.5	-0.21	1.0000 
	1	-2	-27	15255	4113	17773	-2.19	-0.31	1.0000 
	2	-1	-27	17638	3495	20307	-2.16	-0.27	1.0000 
	-1	-2	27	20125	3321	18244	-1.5	0.21	1.0000 
	-2	-1	-27	26569	4432	24395	-1.5	-0.17	1.0000 
	-1	2	-27	21203	3969	24087	-2.14	-0.28	1.0000 
	-1	-2	-27	23782	4020	21736	-1.5	-0.16	1.0000 
	1	-2	-27	18198	3546	20940	-2.19	-0.31	1.0000 
	2	1	-27	27226	4090	25037	-1.49	-0.18	1.0000 
	1	2	-27	26459	3881	24295	-1.5	-0.21	1.0000 
	2	-1	-27	18091	3693	20792	-2.16	-0.27	1.0000 
	-1	2	-28	9467	2825	16817	7.14	-0.9	1.0000 
	-2	-1	-28	530177	142915	574383	6.56	-0.65	1.0000 
	2	-1	-28	8474	1302	15448	7.11	-0.78	1.0000 
	1	-2	-28	8092	2769	14891	7.06	-1.03	1.0000 
	-1	-2	-28	7721	3157	13787	6.51	-0.9	1.0000 
	1	2	-28	10841	2572	17912	6.55	-0.78	1.0000 
	-1	2	-28	10361	1557	18003	7.14	-0.9	1.0000 
	1	2	-28	11422	1490	18657	6.55	-0.78	1.0000 
	-2	-1	-28	452699	122826	493614	6.56	-0.65	1.0000 
	-1	-2	-28	10953	1686	18013	6.51	-0.9	1.0000 
	2	1	-28	12178	1769	19570	6.5	-0.99	1.0000 
	1	-2	-28	10745	1539	18424	7.06	-1.03	1.0000 
	2	-1	-28	7467	1621	14077	7.11	-0.78	1.0000 
	-2	-1	-29	4992	2294	6081	-1.6	0.42	1.0000 
	-1	-2	-29	5421	1696	6555	-1.6	0.48	1.0000 
	-1	2	-29	9399	1705	8251	-1.34	-0.42	1.0000 
	1	-2	-29	8327	1769	7239	-1.36	-0.35	1.0000 
	1	2	-29	7217	1697	8478	-1.56	0.41	1.0000 
	2	-1	-29	7803	1839	6764	-1.34	-0.42	1.0000 
	2	1	-29	7305	1849	8573	-1.55	0.48	1.0000 
	-1	2	-29	10016	1587	8830	-1.34	-0.42	1.0000 
	1	2	-29	7958	1565	9279	-1.56	0.41	1.0000 
	-1	-2	-29	7546	1571	8875	-1.6	0.48	1.0000 
	-2	-1	-29	7227	1510	8527	-1.6	0.42	1.0000 
	1	-2	-29	12039	1851	10723	-1.36	-0.35	1.0000 
	2	1	-29	7871	1591	9185	-1.55	0.48	1.0000 
	2	-1	-29	9755	1569	8589	-1.34	-0.42	1.0000 
	-1	-2	-30	24326	3780	22778	1.11	-0.29	1.0000 
	-2	-1	-30	23683	4933	22115	1.14	-0.14	1.0000 
	-1	2	-30	24865	5260	23480	0.97	-0.71	1.0000 
	2	1	-30	25403	5360	23821	1.11	-0.45	1.0000 
	1	-2	-30	24723	3789	23427	0.91	-0.84	1.0000 
	1	2	-30	24592	5026	22980	1.15	-0.31	1.0000 
	2	-1	-30	25440	3918	24082	0.94	-0.69	1.0000 
	-1	-2	-30	28545	4663	26867	1.11	-0.29	1.0000 
	-2	-1	-30	26771	4423	25102	1.14	-0.14	1.0000 
	1	-2	-30	29007	4699	27603	0.91	-0.84	1.0000 
	-1	2	-30	24836	4192	23452	0.97	-0.71	1.0000 
	1	2	-30	25805	4113	24153	1.15	-0.31	1.0000 
	2	-1	-30	27321	4487	25913	0.94	-0.69	1.0000 
	2	1	-30	27558	4385	25909	1.11	-0.45	1.0000 
	-1	-2	-31	293	188	147	-1.14	0.35	1.0000 
	-2	-1	-31	50	98	3	-1.16	0.33	1.0000 
	-1	2	-31	356	133	254	0.79	-0.56	1.0000 
	2	1	-31	363	195	200	-1.15	0.4	1.0000 
	2	-1	-31	225	143	143	0.81	-0.6	1.0000 
	1	2	-31	190	148	76	-1.16	0.38	1.0000 
	1	-2	-31	305	187	206	0.81	-0.5	1.0000 
	-2	-1	-31	29	295	-137	-1.16	0.33	1.0000 
	-1	-2	-31	29	281	0	-1.14	0.35	1.0000 
	-1	2	-31	19	232	-14	0.79	-0.56	1.0000 
	1	-2	-31	316	199	215	0.81	-0.5	1.0000 
	1	2	-31	189	127	75	-1.16	0.38	1.0000 
	2	-1	-31	283	226	191	0.81	-0.6	1.0000 
	2	1	-31	30	290	-25	-1.15	0.4	1.0000 
	-1	2	-32	13104	3359	12505	-0.64	-0.75	1.0000 
	-1	-2	-32	9631	3122	9796	0.15	-0.58	1.0000 
	-2	-1	-32	8070	2921	8228	0.16	-0.55	1.0000 
	2	-1	-32	9929	2961	9405	-0.64	-0.74	1.0000 
	1	-2	-32	10606	3003	10079	-0.63	-0.79	1.0000 
	2	1	-32	9571	2867	9743	0.14	-0.71	1.0000 
	1	2	-32	10753	3042	10946	0.16	-0.68	1.0000 
	-1	2	-32	8512	2126	8028	-0.64	-0.75	1.0000 
	-2	-1	-32	9947	2524	10123	0.16	-0.55	1.0000 
	-1	-2	-32	12386	3127	12573	0.15	-0.58	1.0000 
	2	-1	-32	11218	2717	10662	-0.64	-0.74	1.0000 
	2	1	-32	9688	2477	9861	0.14	-0.71	1.0000 
	1	2	-32	9442	2442	9622	0.16	-0.68	1.0000 
	1	-2	-32	11485	2725	10937	-0.63	-0.79	1.0000 
	-2	-1	-33	875	411	1144	0.96	0.7	1.0000 
	-1	2	-33	1392	502	1511	-0.34	-0.13	1.0000 
	-1	-2	-33	1054	497	1346	0.95	0.71	1.0000 
	1	-2	-33	1357	484	1479	-0.35	-0.17	1.0000 
	1	2	-33	1117	498	1424	0.97	0.6	1.0000 
	2	1	-33	743	368	995	0.97	0.59	1.0000 
	2	-1	-33	886	371	983	-0.34	-0.18	1.0000 
	-1	2	-33	790	316	880	-0.34	-0.13	1.0000 
	-2	-1	-33	1074	447	1371	0.96	0.7	1.0000 
	2	-1	-33	897	354	995	-0.34	-0.18	1.0000 
	2	1	-33	823	465	1087	0.97	0.59	1.0000 
	1	2	-33	750	408	1003	0.97	0.6	1.0000 
	1	-2	-33	430	274	500	-0.35	-0.17	1.0000 
	-1	-2	-33	932	428	1207	0.95	0.71	1.0000 
	-1	-2	-34	20746	4372	21837	-0.82	0.12	1.0000 
	1	2	-34	26625	5598	27887	-0.84	0.11	1.0000 
	-2	-1	-34	19537	5278	20588	-0.82	0.1	1.0000 
	-1	2	-34	23497	5258	24797	-0.93	-0.24	1.0000 
	1	-2	-34	20843	3939	22033	-0.91	-0.22	1.0000 
	2	1	-34	23127	5346	24307	-0.85	0.11	1.0000 
	2	-1	-34	17656	4595	18760	-0.91	-0.21	1.0000 
	-1	-2	-34	24054	4761	25228	-0.82	0.12	1.0000 
	-2	-1	-34	20565	4172	21643	-0.82	0.1	1.0000 
	-1	2	-34	19159	4202	20335	-0.93	-0.24	1.0000 
	2	1	-34	19451	3926	20535	-0.85	0.11	1.0000 
	2	-1	-34	20694	4006	21888	-0.91	-0.21	1.0000 
	1	-2	-34	22488	4416	23724	-0.91	-0.22	1.0000 
	1	2	-34	19461	3935	20542	-0.84	0.11	1.0000 
	1	2	-35	12097	3273	12090	0.03	0.3	1.0000 
	1	-2	-35	12251	3092	11776	-0.47	-0.29	1.0000 
	-2	-1	-35	9397	2738	9393	0.02	0.28	1.0000 
	-1	-2	-35	9994	2968	9993	0.02	0.25	1.0000 
	2	-1	-35	11293	2891	10824	-0.48	-0.26	1.0000 
	-1	2	-35	9612	3945	9192	-0.47	-0.32	1.0000 
	-2	-1	-35	9776	2457	9772	0.02	0.28	1.0000 
	-1	-2	-35	11203	2823	11202	0.02	0.25	1.0000 
	1	-2	-35	10559	2587	10118	-0.47	-0.29	1.0000 
	2	-1	-35	10216	2428	9770	-0.48	-0.26	1.0000 
	1	2	-35	9096	3868	9090	0.03	0.3	1.0000 
	-2	-1	-36	5646	1828	5434	-0.33	-0.37	1.0000 
	1	-2	-36	6198	2012	6247	0.06	-0.28	1.0000 
	-1	2	-36	6889	2845	6956	0.07	-0.33	1.0000 
	-1	-2	-36	6575	2019	6327	-0.36	-0.39	1.0000 
	1	2	-36	7798	2210	7531	-0.36	-0.39	1.0000 
	2	-1	-36	7119	3013	7180	0.07	-0.25	1.0000 
	-1	2	-36	5430	1680	5489	0.07	-0.33	1.0000 
	-2	-1	-36	5564	1541	5354	-0.33	-0.37	1.0000 
	-1	-2	-36	7241	2790	6981	-0.36	-0.39	1.0000 
	2	-1	-36	6737	1958	6797	0.07	-0.25	1.0000 
	1	2	-36	6703	1867	6455	-0.36	-0.39	1.0000 
	2	1	-36	7439	2863	7161	-0.38	-0.42	1.0000 
	1	-2	-36	6427	1836	6477	0.06	-0.28	1.0000 
	-2	-1	-37	15838	4950	16672	0.72	-0.07	1.0000 
	1	-2	-37	18697	5455	18946	-0.19	-0.22	1.0000 
	-1	-2	-37	15847	5024	16689	0.73	-0.03	1.0000 
	1	2	-37	16100	4963	16974	0.75	-0.13	1.0000 
	2	-1	-37	16381	4798	16642	-0.21	-0.23	1.0000 
	-2	-1	-37	16123	4706	16964	0.72	-0.07	1.0000 
	-1	-2	-37	16748	4845	17613	0.73	-0.03	1.0000 
	-1	2	-37	10839	3353	11044	-0.21	-0.23	1.0000 
	1	2	-37	14944	4435	15786	0.75	-0.13	1.0000 
	2	-1	-37	16926	4693	17192	-0.21	-0.23	1.0000 
	1	-2	-37	16558	4588	16792	-0.19	-0.22	1.0000 
	-1	2	-38	167	124	248	-0.63	-0.11	1.0000 
	-2	-1	-38	362	161	274	0.68	0.5	1.0000 
	1	2	-38	489	222	383	0.67	0.42	1.0000 
	1	-2	-38	202	171	295	-0.66	-0.12	1.0000 
	-1	-2	-38	302	180	221	0.68	0.48	1.0000 
	2	-1	-38	320	233	432	-0.64	-0.09	1.0000 
	-2	-1	-38	14	260	-31	0.68	0.5	1.0000 
	1	2	-38	267	117	189	0.67	0.42	1.0000 
	1	-2	-38	260	208	364	-0.66	-0.12	1.0000 
	-1	2	-38	103	123	169	-0.63	-0.11	1.0000 
	-1	-2	-38	498	217	395	0.68	0.48	1.0000 
	2	-1	-38	298	215	406	-0.64	-0.09	1.0000 
	-2	2	0	231986	20606	697761	78.3	0.91	1.0000 
	-2	2	0	234308	20716	701785	78.3	0.91	1.0000 
	-2	-2	0	241091	17172	693510	75.66	-1.18	1.0000 
	2	2	0	236777	16943	686180	75.66	1.18	1.0000 
	-2	2	0	211516	16357	661914	78.3	0.91	1.0000 
	-2	2	1	66460	2177	68921	-0.95	4.05	1.0000 
	-2	-2	1	75556	2148	71189	-1.79	2.18	1.0000 
	-2	2	-1	66840	2055	69395	-0.99	-3.97	1.0000 
	-2	2	1	68374	2223	70875	-0.95	4.05	1.0000 
	-2	-2	1	77476	2181	73054	-1.79	2.18	1.0000 
	-2	2	-1	67664	2064	70236	-0.99	-3.97	1.0000 
	-2	-2	-1	76436	2166	71992	-1.8	-1.28	1.0000 
	2	2	1	78365	2182	73865	-1.8	1.28	1.0000 
	-2	2	1	75310	2420	77950	-0.95	4.05	1.0000 
	-2	2	-1	73574	2218	76269	-0.99	-3.97	1.0000 
	-2	-2	1	77798	2196	73367	-1.79	2.18	1.0000 
	-2	2	2	58298	1011	25002	-18.56	-2.24	1.0000 
	-2	-2	2	57714	1242	25814	-17.62	0.16	1.0000 
	-2	2	2	58226	1015	24955	-18.56	-2.24	1.0000 
	-2	-2	2	57662	1303	25779	-17.62	0.16	1.0000 
	-2	2	-2	58127	1157	24807	-18.62	2.3	1.0000 
	-2	-2	-2	55428	1166	24323	-17.6	-0.68	1.0000 
	2	-2	2	57909	940	24664	-18.62	-2.3	1.0000 
	2	2	2	53445	911	23015	-17.6	0.68	1.0000 
	-2	2	2	53765	972	22058	-18.56	-2.24	1.0000 
	-2	-2	2	53500	1096	23022	-17.62	0.16	1.0000 
	-2	2	3	6954	831	17459	-8.63	18.64	1.0000 
	-2	-2	3	23576	804	17645	4.63	-4.41	1.0000 
	-2	-2	3	24101	810	18104	4.63	-4.41	1.0000 
	-2	2	3	6081	783	15458	-8.63	18.64	1.0000 
	-2	2	-3	7455	903	18754	-8.71	-18.79	1.0000 
	-2	-2	-3	24343	983	18313	4.65	4.51	1.0000 
	2	-2	3	7621	788	19109	-8.71	18.79	1.0000 
	2	2	3	24290	846	18267	4.65	-4.51	1.0000 
	-2	2	3	7238	841	18080	-8.63	18.64	1.0000 
	-2	-2	3	24162	812	18158	4.63	-4.41	1.0000 
	-2	2	4	72514	2639	89656	-6.67	-1.06	1.0000 
	-2	-2	4	70874	2685	92126	-8.18	3.11	1.0000 
	-2	-2	4	71929	2698	93329	-8.18	3.11	1.0000 
	-2	2	-4	76871	2714	94636	-6.72	0.95	1.0000 
	-2	-2	-4	74839	2859	96878	-8.26	-3.03	1.0000 
	2	-2	4	79649	2730	97716	-6.72	-0.95	1.0000 
	2	2	4	74413	2885	96393	-8.26	3.03	1.0000 
	-2	2	4	79547	2827	97459	-6.67	-1.06	1.0000 
	-2	-2	4	79412	2918	101836	-8.18	3.11	1.0000 
	-2	2	5	14701	493	1528	17.79	6.87	1.0000 
	-2	-2	5	19959	516	1506	-22.76	-0.52	1.0000 
	-2	-2	5	23598	648	2624	-22.76	-0.52	1.0000 
	-2	-2	-5	19719	678	1426	-22.78	0.16	1.0000 
	-2	2	-5	15558	630	1841	17.78	-6.98	1.0000 
	2	-2	5	15998	503	2006	17.78	6.98	1.0000 
	2	2	5	19517	528	1372	-22.78	-0.16	1.0000 
	-2	2	5	15235	702	1717	17.79	6.87	1.0000 
	-2	-2	5	21287	560	1889	-22.76	-0.52	1.0000 
	-2	2	6	57230	3653	114517	21.95	0.8	1.0000 
	-2	-2	6	61691	3470	118780	21.31	-0.63	1.0000 
	-2	2	-6	59394	3411	117669	21.99	-0.5	1.0000 
	-2	-2	-6	60853	3587	117627	21.32	0.25	1.0000 
	2	-2	6	57071	3302	114389	21.99	0.5	1.0000 
	2	2	6	59464	3441	115693	21.32	-0.25	1.0000 
	-2	-2	6	57141	3233	112433	21.31	-0.63	1.0000 
	-2	2	6	55546	3283	112130	21.95	0.8	1.0000 
	-2	2	7	162424	4425	157314	-1.31	-4.79	1.0000 
	-2	-2	7	201566	4456	160826	10.71	1.87	1.0000 
	-2	2	-7	170428	4576	165561	-1.21	4.71	1.0000 
	2	-2	7	173747	4577	168836	-1.21	-4.71	1.0000 
	-2	2	7	168539	4597	163341	-1.31	-4.79	1.0000 
	-2	-2	7	201165	4446	160467	10.71	1.87	1.0000 
	-2	-2	8	9222	1311	21780	-11.35	1.62	1.0000 
	-2	2	-8	7499	1049	22160	-13.78	0.25	1.0000 
	2	-2	8	7063	973	21406	-13.78	-0.25	1.0000 
	-2	-2	8	7448	1358	19001	-11.35	1.62	1.0000 
	-2	-2	9	188601	5872	215629	6.74	-2.56	1.0000 
	-2	2	9	246399	6188	224495	4.97	-0.88	1.0000 
	-2	2	-9	248564	6183	226291	5.03	1.01	1.0000 
	-2	-2	-9	193856	6171	221264	6.74	2.74	1.0000 
	2	-2	9	250490	6135	228129	5.03	-1.01	1.0000 
	2	2	9	194421	6116	221867	6.74	-2.74	1.0000 
	-2	2	9	244587	6172	222766	4.97	-0.88	1.0000 
	-2	-2	9	188376	5894	215388	6.74	-2.56	1.0000 
	-2	-2	10	4791	1029	7625	-3.95	0.88	1.0000 
	-2	2	10	3078	1056	5813	-4.53	1.03	1.0000 
	-2	-2	-10	594	4186	1794	-3.93	-0.98	1.0000 
	2	2	10	872	4054	2260	-3.93	0.98	1.0000 
	-2	-2	10	4040	1370	6669	-3.95	0.88	1.0000 
	-2	2	11	296394	9425	297476	0.25	-1.55	1.0000 
	-2	-2	11	324026	9413	300275	4.78	2.26	1.0000 
	-2	-2	11	333153	9694	309065	4.78	2.26	1.0000 
	-2	2	12	11172	1082	16835	5.32	0.64	1.0000 
	-2	-2	12	12644	2136	21522	7.59	0.08	1.0000 
	-2	2	-12	10344	6668	15887	5.38	-0.82	1.0000 
	-2	-2	-12	6836	9505	13590	7.5	0.15	1.0000 
	2	2	12	7692	8832	14786	7.5	-0.15	1.0000 
	2	-2	12	8324	5415	13355	5.38	0.82	1.0000 
	-2	-2	12	9310	2110	17095	7.59	0.08	1.0000 
	-2	2	12	9968	1040	15349	5.32	0.64	1.0000 
	-2	2	13	162035	5183	143788	5.33	-3.87	1.0000 
	-2	-2	13	183263	5964	148716	-9.37	3.32	1.0000 
	-2	-2	-13	187616	6023	152741	-9.35	-3.28	1.0000 
	-2	-2	13	190685	5557	155414	-9.37	3.32	1.0000 
	-2	2	13	164995	5170	146581	5.33	-3.87	1.0000 
	-2	-2	14	5958	921	5721	0.35	-0.83	1.0000 
	-2	2	14	5447	2210	4424	1.78	1.43	1.0000 
	-2	-2	-14	2436	1494	2311	0.28	0.67	1.0000 
	2	2	14	5770	2017	5582	0.28	-0.67	1.0000 
	-2	-2	14	5878	1324	5643	0.35	-0.83	1.0000 
	-2	2	14	6184	1958	5094	1.78	1.43	1.0000 
	-2	2	15	35842	2630	34278	-0.96	1.23	1.0000 
	-2	-2	15	32582	2599	33544	-0.58	0.14	1.0000 
	-2	-2	-15	32537	1908	33403	-0.53	-0.07	1.0000 
	2	2	15	32442	1871	33307	-0.53	0.07	1.0000 
	-2	-2	15	29535	2817	30451	-0.58	0.14	1.0000 
	-2	2	15	31726	2400	30254	-0.96	1.23	1.0000 
	-2	2	16	10715	2849	8800	2.17	1.35	1.0000 
	-2	-2	16	9576	1133	9112	0.53	-0.09	1.0000 
	-2	-2	-16	6663	2022	6267	0.54	-0.16	1.0000 
	2	-2	-16	10256	2371	8384	2.17	-1.35	1.0000 
	2	2	16	7617	2378	7193	0.54	0.16	1.0000 
	-2	2	16	9616	1000	7805	2.17	1.35	1.0000 
	-2	-2	16	6289	2644	5914	0.53	-0.09	1.0000 
	-2	2	17	60135	2708	58069	-0.95	0.27	1.0000 
	-2	-2	-17	64897	2984	60276	2.09	-1.34	1.0000 
	2	-2	-17	63294	2785	61174	-0.95	-0.27	1.0000 
	2	2	17	66343	2953	61670	2.09	1.34	1.0000 
	-2	2	17	64208	2863	62073	-0.95	0.27	1.0000 
	-2	2	18	7445	2036	7333	0.15	0.17	1.0000 
	-2	-2	-18	6667	2503	5661	1.44	-0.42	1.0000 
	2	-2	-18	6998	1835	6889	0.15	-0.17	1.0000 
	2	2	18	6672	2587	5666	1.44	0.42	1.0000 
	-2	2	18	7130	1965	7020	0.15	0.17	1.0000 
	-2	2	19	192275	9785	200124	-2	2.11	1.0000 
	-2	-2	-19	206897	10704	202233	-1.17	0.95	1.0000 
	2	-2	-19	200553	10200	208570	-2	-2.11	1.0000 
	2	2	19	210343	10630	205641	-1.17	-0.95	1.0000 
	-2	2	19	199130	10161	207118	-2	2.11	1.0000 
	-2	2	20	22059	5890	21919	-0.11	0.64	1.0000 
	-2	2	-20	13447	4579	13271	-0.17	-0.55	1.0000 
	-2	-2	-20	16993	5971	18050	0.88	-0.77	1.0000 
	2	-2	-20	19581	4885	19449	-0.11	-0.64	1.0000 
	2	2	20	17954	6028	19040	0.88	0.77	1.0000 
	-2	2	20	21536	4687	21398	-0.11	0.64	1.0000 
	-2	2	21	268245	13016	270158	0.36	1.23	1.0000 
	-2	-2	-21	269932	13572	266009	0.8	1.84	1.0000 
	2	-2	-21	279228	13547	281181	0.36	-1.23	1.0000 
	2	2	21	271998	13481	268060	0.8	-1.84	1.0000 
	-2	2	21	266432	12911	268339	0.36	1.23	1.0000 
	-2	-2	-22	30785	6308	24210	4.43	1.2	1.0000 
	-2	2	-22	32224	4730	28241	2.54	0.03	1.0000 
	2	2	22	35808	7290	28689	4.43	-1.2	1.0000 
	2	-2	22	30659	3019	26777	2.54	-0.03	1.0000 
	-2	2	23	231356	23623	259000	-6.21	0.66	1.0000 
	-2	2	-23	226625	23967	254133	-6.23	-0.56	1.0000 
	-2	-2	-23	261970	22967	247891	-3.08	-0.47	1.0000 
	2	-2	-23	236036	24070	263950	-6.21	-0.66	1.0000 
	2	2	23	265124	23163	250960	-3.08	0.47	1.0000 
	2	-2	23	227350	23538	254900	-6.23	0.56	1.0000 
	-2	2	23	229370	23404	256898	-6.21	0.66	1.0000 
	-2	-2	-23	243413	24098	229849	-3.08	-0.47	1.0000 
	2	-2	-23	201512	23777	227362	-6.21	-0.66	1.0000 
	-2	-2	-23	233056	23553	219788	-3.08	-0.47	1.0000 
	2	-2	-23	190111	23318	215241	-6.21	-0.66	1.0000 
	-2	2	24	13085	5821	12749	-0.33	-0.87	1.0000 
	-2	-2	24	15824	4956	13846	-1.8	-0.55	1.0000 
	-2	2	-24	15279	4431	14950	-0.3	0.98	1.0000 
	-2	-2	-24	17365	4044	15275	-1.81	0.46	1.0000 
	2	-2	-24	19360	3764	18954	-0.33	0.87	1.0000 
	2	2	-24	19883	4438	17658	-1.8	0.55	1.0000 
	2	2	24	21274	4412	18954	-1.81	-0.46	1.0000 
	2	-2	24	23078	3678	22678	-0.3	-0.98	1.0000 
	-2	-2	24	22767	3952	20382	-1.8	-0.55	1.0000 
	-2	2	24	20389	5701	19973	-0.33	-0.87	1.0000 
	-2	2	-24	18095	3394	17739	-0.3	0.98	1.0000 
	-2	-2	-24	20235	2633	17974	-1.81	0.46	1.0000 
	2	2	-24	17926	2593	15817	-1.8	0.55	1.0000 
	-2	-2	24	17075	2265	15018	-1.8	-0.55	1.0000 
	-2	-2	-24	23130	2793	20708	-1.81	0.46	1.0000 
	-2	2	-24	21246	2631	20861	-0.3	0.98	1.0000 
	2	2	-24	19728	2115	17512	-1.8	0.55	1.0000 
	2	-2	-24	20216	2283	19802	-0.33	0.87	1.0000 
	-2	2	25	57822	6926	59938	0.93	0.66	1.0000 
	-2	-2	25	64484	6648	59560	2.12	-2.05	1.0000 
	-2	-2	-25	59076	9070	54356	2.12	2.09	1.0000 
	-2	2	-25	46140	10480	48067	0.95	-0.59	1.0000 
	2	2	-25	58568	11512	53876	2.12	2.05	1.0000 
	2	-2	-25	48356	10542	50292	0.93	-0.66	1.0000 
	2	-2	25	55119	8839	57224	0.95	0.59	1.0000 
	2	2	25	64932	8276	59983	2.12	-2.09	1.0000 
	-2	2	25	56080	9031	58164	0.93	0.66	1.0000 
	-2	-2	25	60491	8819	55722	2.12	-2.05	1.0000 
	-2	-2	-25	64217	5567	59295	2.12	2.09	1.0000 
	-2	2	-25	57306	5756	59452	0.95	-0.59	1.0000 
	2	2	-25	60175	5612	55419	2.12	2.05	1.0000 
	2	-2	-25	52193	5930	54204	0.93	-0.66	1.0000 
	-2	-2	25	48958	4725	44670	2.12	-2.05	1.0000 
	-2	2	-25	52920	5891	54983	0.95	-0.59	1.0000 
	-2	-2	-25	65546	6842	60573	2.12	2.09	1.0000 
	2	-2	-25	52864	5655	54888	0.93	-0.66	1.0000 
	2	2	-25	45756	4367	41611	2.12	2.05	1.0000 
	-2	-2	26	13702	6231	13764	-0.05	-0.28	1.0000 
	-2	2	26	15301	7426	14164	1.03	0.3	1.0000 
	-2	-2	-26	20827	5804	20833	0	0.38	1.0000 
	-2	2	-26	28611	6349	27076	1.02	-0.19	1.0000 
	2	-2	-26	24401	5534	22959	1.03	-0.3	1.0000 
	2	2	-26	25950	6089	26036	-0.05	0.28	1.0000 
	2	-2	26	28714	4901	27177	1.02	0.19	1.0000 
	2	2	26	23783	6190	23790	0	-0.38	1.0000 
	-2	2	26	29633	6104	28042	1.03	0.3	1.0000 
	-2	-2	26	28301	4991	28391	-0.05	-0.28	1.0000 
	-2	-2	-26	27054	5184	27062	0	0.38	1.0000 
	-2	2	-26	28835	4782	27294	1.02	-0.19	1.0000 
	2	-2	-26	27429	5240	25899	1.03	-0.3	1.0000 
	2	2	-26	29666	4578	29758	-0.05	0.28	1.0000 
	-2	-2	26	22255	4034	22335	-0.05	-0.28	1.0000 
	-2	-2	-26	33269	5774	33278	0	0.38	1.0000 
	-2	2	-26	31297	4832	29691	1.02	-0.19	1.0000 
	2	2	-26	30338	4793	30431	-0.05	0.28	1.0000 
	2	-2	-26	30211	4370	28605	1.03	-0.3	1.0000 
	-2	-2	27	8240	5733	9487	1.52	-0.77	1.0000 
	-2	2	-27	28293	3745	22095	4.31	0.5	1.0000 
	2	2	-27	20156	3564	22089	1.52	0.77	1.0000 
	2	-2	27	26657	2673	20652	4.31	-0.5	1.0000 
	-2	-2	27	23303	2412	25379	1.52	-0.77	1.0000 
	-2	-2	-27	22683	2630	24721	1.51	0.85	1.0000 
	-2	2	-27	29992	3585	23599	4.31	0.5	1.0000 
	2	-2	-27	28880	3688	22607	4.32	0.53	1.0000 
	2	2	-27	23967	3008	26072	1.52	0.77	1.0000 
	-2	-2	27	16914	2209	18687	1.52	-0.77	1.0000 
	-2	-2	-27	26694	2657	28902	1.51	0.85	1.0000 
	-2	2	-27	34041	2183	27206	4.31	0.5	1.0000 
	2	2	-27	25825	1866	28009	1.52	0.77	1.0000 
	2	-2	-27	32959	1417	26231	4.32	0.53	1.0000 
	-2	2	-28	24570	3124	25125	0.3	-1.99	1.0000 
	-2	-2	-28	23565	2247	23777	0.02	-2.45	1.0000 
	2	-2	-28	24860	1506	25441	0.31	-2.06	1.0000 
	2	2	-28	26332	3651	26611	0.05	-2.52	1.0000 
	-2	-2	28	17365	2477	17568	0.05	2.52	1.0000 
	-2	2	-28	26060	2626	26634	0.3	-1.99	1.0000 
	-2	-2	-28	28997	3242	29245	0.02	-2.45	1.0000 
	2	-2	-28	25511	1844	26100	0.31	-2.06	1.0000 
	2	2	-28	28649	2262	28946	0.05	-2.52	1.0000 
	-2	2	-29	2822	1195	3999	2.29	0.78	1.0000 
	-2	-2	-29	4678	1421	4013	1.17	-0.73	1.0000 
	2	2	-29	5497	1411	4806	1.12	-0.69	1.0000 
	2	-2	-29	3141	1531	4374	2.28	0.78	1.0000 
	-2	2	-29	4092	1495	5492	2.29	0.78	1.0000 
	-2	-2	-29	6999	1780	6183	1.17	-0.73	1.0000 
	2	-2	-29	4481	1569	5937	2.28	0.78	1.0000 
	2	2	-29	7193	1837	6401	1.12	-0.69	1.0000 
	-2	2	-30	21037	4795	22076	-0.78	0.33	1.0000 
	-2	-2	-30	22589	3336	23647	-0.77	-1	1.0000 
	2	2	-30	26119	4702	27274	-0.78	-0.95	1.0000 
	2	-2	-30	25500	2815	26665	-0.79	0.3	1.0000 
	-2	2	-30	23693	3352	24795	-0.78	0.33	1.0000 
	-2	-2	-30	29891	4164	31109	-0.77	-1	1.0000 
	2	-2	-30	28873	3686	30112	-0.79	0.3	1.0000 
	-2	-2	-31	2176	456	1364	2.15	0.24	1.0000 
	-2	2	-31	1498	400	1132	-1.13	-0.32	1.0000 
	2	2	-31	2831	571	1890	2.15	0.19	1.0000 
	2	-2	-31	1672	441	1288	-1.11	-0.25	1.0000 
	-2	2	-31	1411	360	1057	-1.13	-0.32	1.0000 
	-2	-2	-31	2638	615	1735	2.15	0.24	1.0000 
	2	-2	-31	1667	420	1284	-1.11	-0.25	1.0000 
	2	2	-31	1977	386	1206	2.15	0.19	1.0000 
	-2	2	-32	8788	2533	8750	-0.04	0.47	1.0000 
	-2	-2	-32	10941	3444	10980	0.03	-0.41	1.0000 
	2	-2	-32	12862	3452	12802	-0.05	0.39	1.0000 
	2	2	-32	14668	5259	14721	0.04	-0.35	1.0000 
	-2	-2	-32	13352	3353	13395	0.03	-0.41	1.0000 
	-2	2	-32	10420	2655	10379	-0.04	0.47	1.0000 
	2	-2	-32	13513	3307	13452	-0.05	0.39	1.0000 
	2	2	-32	11007	2830	11053	0.04	-0.35	1.0000 
	-2	2	-33	8918	2423	7968	1.13	-0.67	1.0000 
	-2	-2	-33	8861	2716	8062	-0.96	-0.05	1.0000 
	2	-2	-33	10475	2746	9466	1.1	-0.6	1.0000 
	2	2	-33	12302	4769	11345	-0.97	0	1.0000 
	-2	-2	-33	9767	2460	8927	-0.96	-0.05	1.0000 
	-2	2	-33	8883	2217	7935	1.13	-0.67	1.0000 
	2	-2	-33	11373	2799	10321	1.1	-0.6	1.0000 
	2	2	-33	8266	2063	7485	-0.97	0	1.0000 
	-2	-2	-34	19985	4800	18956	0.81	-0.48	1.0000 
	2	2	-34	24830	4839	23656	0.83	-0.4	1.0000 
	2	-2	-34	21251	4774	19258	1.56	0.25	1.0000 
	-2	-2	-34	23081	4219	21975	0.81	-0.48	1.0000 
	-2	2	-34	18098	3408	16261	1.56	0.36	1.0000 
	2	-2	-34	23380	4088	21287	1.56	0.25	1.0000 
	2	2	-35	33227	10297	39895	-3.88	-0.19	1.0000 
	2	-2	-35	37489	9770	37549	0.02	0.37	1.0000 
	-2	-2	-35	30647	9255	37095	-3.89	-0.13	1.0000 
	-2	2	-35	27429	7146	27497	0.03	0.4	1.0000 
	2	-2	-35	38898	9476	38959	0.02	0.37	1.0000 
	-2	2	-36	7819	2460	8102	0.33	-0.64	1.0000 
	2	2	-36	8878	2894	10072	1.35	-0.29	1.0000 
	-2	-2	-36	6144	3225	7138	1.34	-0.38	1.0000 
	2	-2	-36	9613	3000	9946	0.35	-0.72	1.0000 
	-2	-2	-36	7073	2363	8137	1.34	-0.38	1.0000 
	-2	2	-36	5417	1734	5651	0.33	-0.64	1.0000 
	2	2	-36	7890	2578	9018	1.35	-0.29	1.0000 
	2	-2	-36	9773	2782	10109	0.35	-0.72	1.0000 
	-2	2	-37	16666	5972	18799	-1.78	-0.01	1.0000 
	-2	-2	-37	54377	12623	46888	-3.67	-0.48	1.0000 
	2	2	-37	51020	12479	43824	-3.65	-0.41	1.0000 
	2	-2	-37	53649	28403	57412	-1.77	0	1.0000 
	-2	-2	-37	54688	12562	47177	-3.67	-0.48	1.0000 
	-2	2	-37	25361	8385	27977	-1.78	-0.01	1.0000 
	2	2	-37	55275	12851	47774	-3.65	-0.41	1.0000 
	2	-2	-37	48774	13754	52365	-1.77	0	1.0000 
	-3	0	0	345040	16635	664024	50.36	0.53	1.0000 
	-3	0	0	339257	16428	655991	50.36	0.53	1.0000 
	3	0	0	348251	16683	668475	50.36	-0.53	1.0000 
	-3	0	2	8145	1110	16381	-8.29	-3.88	1.0000 
	-3	0	2	9192	1141	17869	-8.29	-3.88	1.0000 
	-3	0	-2	9123	923	17800	-8.29	4.09	1.0000 
	3	0	2	9974	946	18995	-8.29	-4.09	1.0000 
	-3	0	2	12153	1401	21957	-8.29	-3.88	1.0000 
	0	3	-4	13689	327	8900	-5.24	2.52	1.0000 
	0	3	-4	13699	356	8908	-5.24	2.52	1.0000 
	-3	0	-4	13893	643	9062	-5.23	2.47	1.0000 
	0	3	-4	14468	333	9535	-5.24	2.52	1.0000 
	3	0	4	14716	629	9734	-5.23	-2.47	1.0000 
	0	-3	4	14847	345	9846	-5.24	-2.52	1.0000 
	0	3	-4	15250	358	10177	-5.24	2.52	1.0000 
	0	-3	6	27415	958	24256	2.17	-0.35	1.0000 
	0	3	-6	30555	1189	27215	2.17	0.35	1.0000 
	0	3	-6	31471	1099	28080	2.17	0.35	1.0000 
	0	3	-6	31240	987	27862	2.17	0.35	1.0000 
	0	-3	-6	32665	1332	29196	2.18	0.26	1.0000 
	0	-3	6	33195	964	29710	2.17	-0.35	1.0000 
	0	3	6	33295	1213	29792	2.18	-0.26	1.0000 
	0	3	-6	34707	1061	31141	2.17	0.35	1.0000 
	0	3	8	112584	2726	80382	-11.56	2	1.0000 
	0	3	10	100303	3327	88563	4.23	0.93	1.0000 
	0	-3	10	102520	3134	90960	4.11	0.85	1.0000 
	-3	0	-10	99667	3429	88019	4.21	-0.92	1.0000 
	0	-3	-10	97196	3208	85645	4.23	-0.93	1.0000 
	0	3	-10	101086	3164	89610	4.11	-0.85	1.0000 
	3	0	10	100532	3356	88832	4.21	0.92	1.0000 
	0	-3	10	98758	3022	87418	4.11	0.85	1.0000 
	0	3	10	95547	3196	84097	4.23	0.93	1.0000 
	0	-3	12	77944	3105	85792	3.01	1.04	1.0000 
	0	3	12	76410	3542	84644	3.18	1.24	1.0000 
	-3	0	12	70031	3901	77608	3.06	1.13	1.0000 
	-3	0	-12	77272	3593	85404	3.13	-1.12	1.0000 
	0	-3	-12	73237	3257	81303	3.18	-1.24	1.0000 
	0	3	-12	77932	3145	85779	3.01	-1.04	1.0000 
	3	0	12	62518	2916	69851	3.13	1.12	1.0000 
	0	3	12	72596	3549	80627	3.18	1.24	1.0000 
	0	-3	12	75848	3057	83592	3.01	1.04	1.0000 
	-3	0	12	68207	4035	75686	3.06	1.13	1.0000 
	0	-3	14	42066	2138	41121	0.5	1.04	1.0000 
	0	3	14	40758	2032	39738	0.55	0.9	1.0000 
	-3	0	14	39540	2023	38631	0.49	1.04	1.0000 
	-3	0	-14	41221	2190	40180	0.55	-0.91	1.0000 
	0	-3	-14	41199	2043	40174	0.55	-0.9	1.0000 
	0	3	-14	42993	2215	42038	0.5	-1.04	1.0000 
	3	0	14	42963	2201	41900	0.55	0.91	1.0000 
	0	3	14	40346	2043	39331	0.55	0.9	1.0000 
	0	-3	14	42079	1898	41134	0.5	1.04	1.0000 
	-3	0	14	38670	1965	37771	0.49	1.04	1.0000 
	0	-3	16	306	174	395	-5.82	1.3	1.0000 
	0	3	16	307	277	299	-5.82	1.12	1.0000 
	-3	0	16	302	124	405	-5.83	1.25	1.0000 
	-3	0	-16	354	181	171	-5.8	-1.18	1.0000 
	0	-3	-16	310	258	286	-5.82	-1.12	1.0000 
	0	3	-16	306	195	386	-5.82	-1.3	1.0000 
	3	0	16	312	212	289	-5.8	1.18	1.0000 
	0	-3	16	311	166	328	-5.82	1.3	1.0000 
	0	3	16	297	145	413	-5.82	1.12	1.0000 
	-3	0	16	304	162	375	-5.83	1.25	1.0000 
	0	3	18	5409	1446	3076	3.97	0.93	1.0000 
	0	-3	18	4596	988	2483	3.95	0.85	1.0000 
	-3	0	18	6182	667	3668	3.97	0.81	1.0000 
	-3	0	-18	4705	1011	2554	3.96	-0.95	1.0000 
	0	-3	-18	4740	852	2576	3.97	-0.93	1.0000 
	0	3	-18	5541	948	3190	3.95	-0.85	1.0000 
	3	0	18	5731	1015	3325	3.96	0.95	1.0000 
	0	3	18	6069	1100	3579	3.97	0.93	1.0000 
	0	-3	18	5465	811	3132	3.95	0.85	1.0000 
	-3	0	18	5590	879	3215	3.97	0.81	1.0000 
	0	3	20	2966	896	2034	-2.06	-0.32	1.0000 
	-3	0	20	3987	659	2889	-2.06	-0.57	1.0000 
	-3	0	-20	3339	803	2316	-2.12	0.35	1.0000 
	0	3	-20	3442	476	2404	-2.11	0.61	1.0000 
	0	-3	-20	3081	516	2130	-2.06	0.32	1.0000 
	3	0	20	3232	534	2227	-2.12	-0.35	1.0000 
	0	3	20	3488	697	2470	-2.06	-0.32	1.0000 
	0	-3	20	3609	524	2544	-2.11	-0.61	1.0000 
	-3	0	20	3509	480	2484	-2.06	-0.57	1.0000 
	-3	0	22	67	215	75	1.04	-1.34	1.0000 
	-3	0	-22	50	215	40	0.97	1.25	1.0000 
	0	3	-22	50	118	-28	0.97	1.22	1.0000 
	0	-3	-22	123	214	171	1.06	1.4	1.0000 
	3	0	-22	105	146	137	1.04	1.34	1.0000 
	3	0	22	68	146	72	0.97	-1.25	1.0000 
	0	3	22	300	325	408	1.06	-1.4	1.0000 
	0	-3	22	148	123	182	0.97	-1.22	1.0000 
	-3	0	22	72	132	85	1.04	-1.34	1.0000 
	-3	0	24	7604	1460	7666	-0.08	0.37	1.0000 
	-3	0	-24	6548	1954	6635	-0.12	-0.43	1.0000 
	0	-3	-24	7864	1539	7951	-0.11	-0.27	1.0000 
	0	3	-24	8377	1986	8447	-0.08	-0.51	1.0000 
	3	0	-24	7336	1641	7397	-0.08	-0.37	1.0000 
	3	0	24	7832	1785	7928	-0.12	0.43	1.0000 
	0	3	24	9535	1877	9630	-0.11	0.27	1.0000 
	0	-3	24	9288	1574	9362	-0.08	0.51	1.0000 
	-3	0	24	8242	1599	8307	-0.08	0.37	1.0000 
	-3	0	-24	6091	1815	6175	-0.12	-0.43	1.0000 
	0	-3	-24	7282	1476	7365	-0.11	-0.27	1.0000 
	0	3	-24	7804	1218	7872	-0.08	-0.51	1.0000 
	3	0	-24	7224	1173	7285	-0.08	-0.37	1.0000 
	0	-3	24	7584	1221	7651	-0.08	0.51	1.0000 
	-3	0	-24	8794	1193	8896	-0.12	-0.43	1.0000 
	0	-3	-24	7738	1034	7824	-0.11	-0.27	1.0000 
	0	3	-24	6309	885	6369	-0.08	-0.51	1.0000 
	3	0	-24	8472	1066	8538	-0.08	-0.37	1.0000 
	-3	0	26	5181	881	2924	-3.97	0.06	1.0000 
	-3	0	-26	4198	840	2203	-3.97	-0.23	1.0000 
	0	3	-26	6274	916	3742	-4.01	-0.24	1.0000 
	0	-3	-26	5294	893	3019	-3.95	-0.08	1.0000 
	3	0	-26	5026	946	2808	-3.97	-0.06	1.0000 
	3	0	26	5308	769	3025	-3.97	0.23	1.0000 
	0	3	26	6310	1122	3797	-3.95	0.08	1.0000 
	0	-3	26	6799	833	4150	-4.01	0.24	1.0000 
	-3	0	26	6132	773	3648	-3.97	0.06	1.0000 
	-3	0	-26	5390	986	3087	-3.97	-0.23	1.0000 
	0	-3	-26	6541	914	3977	-3.95	-0.08	1.0000 
	0	3	-26	6662	852	4043	-4.01	-0.24	1.0000 
	3	0	-26	5860	919	3439	-3.97	-0.06	1.0000 
	-3	0	-26	6514	762	3951	-3.97	-0.23	1.0000 
	0	-3	-26	6760	752	4148	-3.95	-0.08	1.0000 
	0	3	-26	6425	669	3859	-4.01	-0.24	1.0000 
	3	0	-26	6741	682	4121	-3.97	-0.06	1.0000 
	-3	0	-28	5940	2004	5426	0.74	-0.66	1.0000 
	0	-3	-28	7671	1242	7085	0.74	-0.5	1.0000 
	0	3	-28	8106	1058	7536	0.7	-0.66	1.0000 
	3	0	-28	6037	1920	5527	0.73	-0.5	1.0000 
	-3	0	-28	8530	837	7914	0.74	-0.66	1.0000 
	0	-3	-28	8135	825	7531	0.74	-0.5	1.0000 
	0	3	-28	7632	608	7079	0.7	-0.66	1.0000 
	3	0	-28	5971	1686	5464	0.73	-0.5	1.0000 
	0	3	-30	9581	1243	7651	-2.33	-0.32	1.0000 
	-3	0	-30	6728	2013	5156	-2.29	-0.3	1.0000 
	3	0	-30	7870	1203	6136	-2.32	-0.21	1.0000 
	0	-3	-30	8141	1104	6396	-2.28	-0.16	1.0000 
	-3	0	-30	8993	980	7159	-2.29	-0.3	1.0000 
	0	-3	-30	8437	854	6658	-2.28	-0.16	1.0000 
	0	3	-30	7793	829	6063	-2.33	-0.32	1.0000 
	3	0	-30	8647	820	6824	-2.32	-0.21	1.0000 
	-3	0	-32	11104	2977	9797	1.4	-0.55	1.0000 
	0	-3	-32	11329	2852	10020	1.39	-0.51	1.0000 
	0	3	-32	11718	2835	10397	1.38	-0.53	1.0000 
	3	0	-32	10069	2564	8853	1.37	-0.49	1.0000 
	-3	0	-32	10850	2411	9558	1.4	-0.55	1.0000 
	0	3	-32	10405	2353	9163	1.38	-0.53	1.0000 
	0	-3	-32	11099	2418	9804	1.39	-0.51	1.0000 
	3	0	-32	11262	2398	9974	1.37	-0.49	1.0000 
	-3	0	-34	743	305	723	-0.05	0.54	1.0000 
	0	-3	-34	1322	509	1285	-0.09	0.5	1.0000 
	0	3	-34	921	340	901	-0.04	0.61	1.0000 
	3	0	-34	1114	433	1085	-0.07	0.56	1.0000 
	0	3	-34	527	251	510	-0.04	0.61	1.0000 
	-3	0	-34	1029	380	1007	-0.05	0.54	1.0000 
	0	-3	-34	785	287	755	-0.09	0.5	1.0000 
	3	0	-34	1158	465	1128	-0.07	0.56	1.0000 
	-3	0	-36	256	148	172	0.69	-0.94	1.0000 
	0	-3	-36	483	301	379	0.65	-0.97	1.0000 
	0	3	-36	252	101	164	0.7	-0.83	1.0000 
	3	0	-36	24	181	-7	0.67	-0.86	1.0000 
	0	-3	-36	232	148	156	0.65	-0.97	1.0000 
	-3	0	-36	424	232	319	0.69	-0.94	1.0000 
	0	3	-36	287	129	193	0.7	-0.83	1.0000 
	3	0	-36	127	162	65	0.67	-0.86	1.0000 
	-3	1	0	99402	2565	81964	-6.42	-0.03	1.0000 
	-3	1	0	98142	2518	80820	-6.42	-0.03	1.0000 
	1	-3	0	99587	2122	82095	-6.43	0.1	1.0000 
	1	3	0	98221	2167	80210	-6.69	-0.3	1.0000 
	3	1	0	99635	2674	81507	-6.68	-0.22	1.0000 
	-1	3	0	102660	2179	84887	-6.43	-0.1	1.0000 
	-1	-3	0	100563	2192	82328	-6.69	0.3	1.0000 
	-3	1	0	100684	2579	83128	-6.42	-0.03	1.0000 
	-1	-3	-1	138525	5042	199080	16.38	0.18	1.0000 
	-1	3	-1	143770	5044	205132	-16.32	-0.51	1.0000 
	-3	1	1	143609	5572	205137	-16.37	0.2	1.0000 
	-3	1	1	141844	5499	203027	-16.37	0.2	1.0000 
	1	-3	-1	131407	4810	190510	-16.38	0.13	1.0000 
	-3	1	-1	141097	5473	202018	-16.35	-0.18	1.0000 
	1	3	-1	136465	4972	196512	16.36	0.71	1.0000 
	1	3	1	138280	5068	198786	16.38	-0.18	1.0000 
	-1	3	1	125047	4593	182836	-16.38	-0.13	1.0000 
	3	-1	1	146781	5582	208808	-16.35	0.18	1.0000 
	3	1	1	134154	5218	193922	16.41	-0.36	1.0000 
	-1	-3	1	136316	4933	196333	16.36	-0.71	1.0000 
	-1	3	-1	123793	4449	181124	-16.32	-0.51	1.0000 
	-1	-3	-1	136881	4998	197108	16.38	0.18	1.0000 
	-1	3	-1	142994	5025	204204	-16.32	-0.51	1.0000 
	-3	1	1	143392	5549	204878	-16.37	0.2	1.0000 
	-1	-3	-2	16459	852	24974	6.57	-0.39	1.0000 
	-1	3	-2	14188	622	22400	5	-7.01	1.0000 
	-1	3	-2	12465	578	20183	5	-7.01	1.0000 
	-3	1	2	16134	1239	24979	5.05	7.08	1.0000 
	1	-3	-2	13145	745	20896	4.97	-6.79	1.0000 
	-1	3	-2	12467	577	20185	5	-7.01	1.0000 
	-3	1	2	16202	1218	25065	5.05	7.08	1.0000 
	1	-3	-2	13173	741	20932	4.97	-6.79	1.0000 
	-3	1	-2	16663	1121	25251	4.91	-6.76	1.0000 
	1	3	-2	13692	739	21377	6.44	-0.63	1.0000 
	1	3	2	13719	792	21570	6.57	0.39	1.0000 
	3	-1	2	17410	1439	26181	4.91	6.76	1.0000 
	3	1	2	17336	1565	25896	6.46	0.52	1.0000 
	-1	-3	2	13461	696	21088	6.44	0.63	1.0000 
	-1	3	-2	13492	661	21508	5	-7.01	1.0000 
	-1	-3	-2	15418	829	23688	6.57	-0.39	1.0000 
	-3	1	2	15458	1251	24123	5.05	7.08	1.0000 
	1	-3	-2	12434	719	19982	4.97	-6.79	1.0000 
	-1	3	-3	315388	10828	443452	23.11	0.87	1.0000 
	-3	1	3	304417	11037	430381	23.1	-0.4	1.0000 
	1	-3	-3	314798	11026	442887	23.13	0.56	1.0000 
	-3	1	3	304394	11015	430354	23.1	-0.4	1.0000 
	1	-3	-3	314076	10994	442030	23.13	0.56	1.0000 
	-3	1	-3	303942	11011	430068	23.15	1.04	1.0000 
	1	3	-3	304902	10292	415338	-20.4	-2.13	1.0000 
	3	-1	3	299486	10795	424764	23.15	-1.04	1.0000 
	-1	-3	3	318141	10626	430767	-20.4	2.13	1.0000 
	3	1	3	303492	10565	413741	-20.42	1.46	1.0000 
	-1	3	-3	315786	10842	443924	23.11	0.87	1.0000 
	1	-3	-3	321840	11226	451232	23.13	0.56	1.0000 
	-3	1	3	309918	11190	436917	23.1	-0.4	1.0000 
	-3	1	4	33908	1977	29604	2.71	2.62	1.0000 
	-3	1	4	34683	1278	30330	2.71	2.62	1.0000 
	-3	1	-4	39336	1408	34957	2.55	-2.45	1.0000 
	1	3	-4	32302	981	28940	2.12	-0.74	1.0000 
	-1	3	-4	30768	1234	26739	2.66	-2.59	1.0000 
	-1	-3	-4	36479	1172	32993	2.06	-0.66	1.0000 
	-1	-3	4	32322	930	28959	2.12	0.74	1.0000 
	3	-1	4	40500	1374	36057	2.55	2.45	1.0000 
	1	-3	4	31880	837	27778	2.66	2.59	1.0000 
	-3	1	4	37918	1940	33366	2.71	2.62	1.0000 
	-3	1	5	430443	13323	522882	-14.79	-2.27	1.0000 
	1	3	-5	453784	13123	528055	11.75	-0.49	1.0000 
	-3	1	5	431307	13333	523834	-14.79	-2.27	1.0000 
	1	3	-5	447896	12958	521702	11.75	-0.49	1.0000 
	-1	3	-5	400386	12093	489737	-14.8	2.06	1.0000 
	-3	1	-5	421480	13083	513338	-14.85	2.15	1.0000 
	-1	-3	-5	447595	13078	522004	11.85	-0.69	1.0000 
	3	-1	5	416565	12858	507912	-14.85	-2.15	1.0000 
	1	-3	5	385346	11638	473086	-14.8	-2.06	1.0000 
	1	3	5	439539	12825	513301	11.85	0.69	1.0000 
	-3	1	5	408264	12739	498405	-14.79	-2.27	1.0000 
	-3	1	6	54092	2112	59649	2.47	2.78	1.0000 
	-3	1	-6	57378	2197	63189	2.54	-2.43	1.0000 
	-1	3	-6	51043	2309	56320	2.42	-2.81	1.0000 
	-1	-3	-6	61754	2011	61632	-0.3	-4.21	1.0000 
	3	-1	6	58441	2146	64305	2.54	2.43	1.0000 
	1	-3	6	48276	1564	53407	2.42	2.81	1.0000 
	1	3	6	61965	1977	61843	-0.3	4.21	1.0000 
	-3	1	6	54360	2119	59931	2.47	2.78	1.0000 
	-1	3	7	449999	11464	448479	-0.26	0.38	1.0000 
	-3	1	7	446089	11544	445532	-0.1	0.53	1.0000 
	-3	1	-7	447036	11534	445450	-0.27	-0.43	1.0000 
	-1	3	-7	460236	11512	459498	-0.13	-0.57	1.0000 
	-1	-3	-7	463732	11502	450555	2.15	0.2	1.0000 
	3	-1	7	441345	11294	439769	-0.27	0.43	1.0000 
	1	-3	7	449921	11186	449191	-0.13	0.57	1.0000 
	1	3	7	463704	11461	450527	2.15	-0.2	1.0000 
	-3	1	7	420055	10911	419514	-0.1	0.53	1.0000 
	-3	1	8	16527	1790	11664	5.44	-4.31	1.0000 
	-3	-1	8	16748	1955	10547	6.04	-1.6	1.0000 
	-3	1	-8	10094	2050	6279	5.56	4.7	1.0000 
	-1	3	-8	10852	481	6896	5.42	4.3	1.0000 
	1	-3	-8	15435	1074	10762	5.58	4.72	1.0000 
	1	-3	8	9771	976	6013	5.42	-4.3	1.0000 
	-1	3	8	19371	1717	14169	5.58	-4.72	1.0000 
	-3	-1	8	16160	757	10080	6.04	-1.6	1.0000 
	-3	1	8	14775	1390	10169	5.44	-4.31	1.0000 
	-3	1	9	172800	4237	121276	14.91	1.02	1.0000 
	-3	-1	9	188163	4204	120788	-19.07	1.35	1.0000 
	-3	1	-9	176559	4351	124310	14.96	-0.75	1.0000 
	-1	3	-9	165672	3828	115215	14.95	-0.98	1.0000 
	1	-3	-9	167709	4015	117057	14.91	-0.76	1.0000 
	3	-1	9	178882	4334	126260	14.96	0.75	1.0000 
	1	-3	9	174516	3974	122609	14.95	0.98	1.0000 
	-1	3	9	174482	3799	122727	14.91	0.76	1.0000 
	-3	-1	9	183385	3626	116966	-19.07	1.35	1.0000 
	-3	1	9	173116	4258	121541	14.91	1.02	1.0000 
	-1	-3	10	4302	1102	6023	-2.37	-3.87	1.0000 
	-3	-1	10	795	1078	1480	-2.41	-4.05	1.0000 
	-3	1	-10	547	1472	88	-4.42	5.17	1.0000 
	-1	-3	-10	425	1268	803	-2.49	3.98	1.0000 
	3	-1	10	535	1525	95	-4.42	-5.17	1.0000 
	1	3	10	402	1331	755	-2.49	-3.98	1.0000 
	-1	3	10	281	1302	798	-4.49	-5.1	1.0000 
	-1	-3	10	253	1009	345	-2.37	-3.87	1.0000 
	-3	1	10	666	822	2021	-4.5	-4.93	1.0000 
	-3	-1	10	652	1203	1241	-2.41	-4.05	1.0000 
	-1	3	11	123526	3854	105985	-5.75	0.44	1.0000 
	-3	-1	11	125618	3958	99358	8.68	-0.39	1.0000 
	-3	1	11	118972	4050	101412	-5.89	0.78	1.0000 
	-1	3	-11	115787	3517	98477	-5.89	-0.78	1.0000 
	1	3	-11	125082	3446	98820	8.7	0.48	1.0000 
	3	-1	11	119804	5063	102543	-5.75	0.45	1.0000 
	-1	3	11	118889	3729	101693	-5.75	0.44	1.0000 
	-3	1	11	117234	3716	99808	-5.89	0.78	1.0000 
	-3	-1	11	124413	3625	98287	8.68	-0.39	1.0000 
	-1	3	12	10797	1041	9250	-1.71	0.01	1.0000 
	-3	1	12	10208	1171	8758	-1.66	0.15	1.0000 
	-3	-1	12	11260	2388	8760	-2.8	0.4	1.0000 
	-3	1	-12	7704	2620	6429	-1.68	0.04	1.0000 
	-1	3	-12	8686	2199	7385	-1.61	-0.07	1.0000 
	-3	-1	-12	9094	4761	6803	-2.88	-0.39	1.0000 
	-1	-3	-12	7779	4299	5667	-2.88	-0.41	1.0000 
	1	-3	-12	7783	3301	6479	-1.71	-0.01	1.0000 
	1	3	-12	9369	615	7114	-2.78	-0.36	1.0000 
	3	1	12	9087	4562	6797	-2.88	0.39	1.0000 
	1	-3	12	9586	882	8217	-1.61	0.07	1.0000 
	1	3	12	8872	3735	6606	-2.88	0.41	1.0000 
	-1	-3	12	8536	577	6390	-2.78	0.36	1.0000 
	-1	3	12	8970	2987	7566	-1.71	0.01	1.0000 
	-3	-1	12	9273	2362	7018	-2.8	0.4	1.0000 
	-3	1	12	9891	1314	8465	-1.66	0.15	1.0000 
	-3	-1	13	73987	3458	76883	1.18	-1.23	1.0000 
	-3	1	13	86024	3703	78344	2.97	-0.11	1.0000 
	-3	1	-13	86807	3827	78841	3.06	0.13	1.0000 
	-3	-1	-13	74799	4065	77817	1.23	1.32	1.0000 
	-1	3	-13	83077	3401	75508	2.97	0.26	1.0000 
	-1	-3	-13	68548	4556	71299	1.17	1.38	1.0000 
	1	3	-13	71306	2848	74273	1.23	1.18	1.0000 
	1	-3	-13	83028	3027	75270	3.05	-0.02	1.0000 
	3	1	13	76642	3659	79697	1.23	-1.32	1.0000 
	1	3	13	71253	3178	74059	1.17	-1.38	1.0000 
	1	-3	13	84099	3146	76482	2.97	-0.26	1.0000 
	-1	-3	13	72927	3754	75928	1.23	-1.18	1.0000 
	-3	-1	13	69254	3387	72056	1.18	-1.23	1.0000 
	-3	1	13	80245	3492	72833	2.97	-0.11	1.0000 
	-1	3	14	21344	1746	21348	-0.02	0.86	1.0000 
	-1	-3	14	27578	1427	25848	1.16	0.84	1.0000 
	-3	-1	14	22554	1726	21014	1.14	0.96	1.0000 
	-3	1	14	21405	1689	21365	0.01	0.83	1.0000 
	-3	1	-14	19900	1538	19895	-0.01	-0.89	1.0000 
	-3	-1	-14	19995	1419	18544	1.14	-0.81	1.0000 
	-1	3	-14	21370	2351	21318	0.02	-0.85	1.0000 
	-1	-3	-14	21384	1708	19925	1.11	-0.93	1.0000 
	1	-3	-14	20708	1396	20712	-0.02	-0.86	1.0000 
	1	3	-14	25248	2009	23594	1.16	-0.84	1.0000 
	3	-1	14	19737	1316	19732	-0.01	0.89	1.0000 
	3	1	14	21531	1396	20025	1.14	0.81	1.0000 
	1	3	14	20918	3190	19475	1.11	0.93	1.0000 
	1	-3	14	18992	1332	18942	0.02	0.85	1.0000 
	-1	-3	14	24946	1337	23302	1.16	0.84	1.0000 
	-1	3	14	20923	2041	20927	-0.02	0.86	1.0000 
	-3	-1	14	22979	1654	21424	1.14	0.96	1.0000 
	-3	1	14	21988	1912	21947	0.01	0.83	1.0000 
	-1	3	15	30864	1770	31043	0.11	-0.04	1.0000 
	-1	-3	15	28776	2740	28062	0.47	-0.49	1.0000 
	-3	-1	15	29151	2133	28457	0.45	-0.5	1.0000 
	-3	-1	-15	28149	3663	27494	0.43	0.26	1.0000 
	-3	1	-15	30377	1850	30528	0.1	0.03	1.0000 
	-1	-3	-15	27793	1922	27184	0.4	0.32	1.0000 
	-1	3	-15	27879	2950	27974	0.06	0.09	1.0000 
	1	3	-15	31605	1653	30856	0.47	0.49	1.0000 
	1	-3	-15	29312	1671	29486	0.11	0.04	1.0000 
	3	-1	15	31024	1792	31177	0.1	-0.03	1.0000 
	3	1	15	30568	3217	29886	0.43	-0.26	1.0000 
	1	3	15	27808	2332	27199	0.4	-0.32	1.0000 
	1	-3	15	29898	1719	29996	0.06	-0.09	1.0000 
	-1	-3	15	31698	1696	30948	0.47	-0.49	1.0000 
	-1	3	15	29909	1743	30085	0.11	-0.04	1.0000 
	-3	-1	15	28694	2083	28005	0.45	-0.5	1.0000 
	-1	-3	16	2870	1581	4848	3.53	0.45	1.0000 
	-1	3	16	3728	1885	5316	2.64	-1.61	1.0000 
	-3	-1	16	2197	2196	3932	3.48	0.43	1.0000 
	-3	1	16	3275	1593	4751	2.61	-1.7	1.0000 
	-3	1	-16	3106	1378	4562	2.64	1.54	1.0000 
	-3	-1	-16	1430	1640	2909	3.54	-0.52	1.0000 
	-1	3	-16	2648	1320	3977	2.6	1.64	1.0000 
	-1	-3	-16	1697	1147	3256	3.49	-0.5	1.0000 
	1	-3	-16	2231	1511	3478	2.64	1.61	1.0000 
	1	3	-16	2419	1261	4255	3.53	-0.45	1.0000 
	3	-1	16	2989	1411	4419	2.64	-1.54	1.0000 
	3	1	16	1432	1415	2912	3.54	0.52	1.0000 
	1	3	16	2267	1661	4030	3.49	0.5	1.0000 
	1	-3	16	2955	871	4354	2.6	-1.64	1.0000 
	-1	-3	16	2604	1302	4500	3.53	0.45	1.0000 
	-1	3	16	3518	1590	5063	2.64	-1.61	1.0000 
	-3	-1	16	2214	1707	3954	3.48	0.43	1.0000 
	-3	1	16	2465	1427	3755	2.61	-1.7	1.0000 
	-1	3	17	2635	595	2328	-0.67	-0.94	1.0000 
	-1	-3	17	1583	580	1611	-0.08	0.03	1.0000 
	-3	-1	17	2336	474	2367	-0.07	-0.04	1.0000 
	-3	1	17	1938	704	1667	-0.69	-0.91	1.0000 
	-3	1	-17	2401	610	2107	-0.68	1.04	1.0000 
	-1	3	-17	2214	433	1921	-0.7	1	1.0000 
	-3	-1	-17	1337	707	1370	-0.1	0.07	1.0000 
	-1	-3	-17	1494	539	1528	-0.11	0.17	1.0000 
	1	3	-17	1475	597	1502	-0.08	-0.03	1.0000 
	1	-3	-17	1736	384	1485	-0.67	0.94	1.0000 
	3	-1	17	2623	585	2317	-0.68	-1.04	1.0000 
	3	1	17	1459	684	1493	-0.1	-0.07	1.0000 
	1	3	17	1775	457	1813	-0.11	-0.17	1.0000 
	1	-3	17	2189	499	1898	-0.7	-1	1.0000 
	-1	-3	17	1529	427	1557	-0.08	0.03	1.0000 
	-1	3	17	2536	512	2235	-0.67	-0.94	1.0000 
	-3	1	17	1639	647	1389	-0.69	-0.91	1.0000 
	-3	-1	17	1611	455	1636	-0.07	-0.04	1.0000 
	-1	-3	18	17914	1652	19981	-1.67	0.09	1.0000 
	-1	3	18	20246	2389	19362	0.69	0.11	1.0000 
	-3	1	18	21371	2274	20488	0.67	0.13	1.0000 
	-3	-1	18	17736	1903	19801	-1.67	0.04	1.0000 
	-3	1	-18	19410	3149	18547	0.69	-0.05	1.0000 
	-1	3	-18	19852	2191	18994	0.68	-0.06	1.0000 
	-3	-1	-18	16717	1772	18679	-1.64	-0.12	1.0000 
	-1	-3	-18	15814	2570	17722	-1.63	-0.04	1.0000 
	1	3	-18	17935	2089	20003	-1.67	-0.09	1.0000 
	3	1	18	16956	1764	18931	-1.64	0.12	1.0000 
	1	3	18	17379	2334	19377	-1.63	0.04	1.0000 
	1	-3	18	19911	3663	19052	0.68	0.06	1.0000 
	-1	3	18	19480	2491	18613	0.69	0.11	1.0000 
	-1	-3	18	16658	1595	18653	-1.67	0.09	1.0000 
	-3	1	18	19507	2165	18664	0.67	0.13	1.0000 
	-3	-1	18	17506	4575	19558	-1.67	0.04	1.0000 
	-1	3	19	18666	1768	16361	1.94	-0.17	1.0000 
	-1	-3	19	19802	1869	16548	-2.69	-0.3	1.0000 
	-3	-1	19	18682	4125	15492	-2.72	-0.21	1.0000 
	-3	1	19	21786	4284	19363	1.87	-0.01	1.0000 
	-3	1	-19	18115	2403	15819	1.97	0.26	1.0000 
	-3	-1	-19	15839	4606	12865	-2.77	0.34	1.0000 
	-1	3	-19	17913	3434	15707	1.89	0.08	1.0000 
	1	-3	-19	17317	3127	15099	1.94	0.17	1.0000 
	-1	-3	-19	17241	3762	14104	-2.79	0.26	1.0000 
	1	3	-19	20059	3724	16783	-2.69	0.3	1.0000 
	3	-1	19	19211	1424	16844	1.97	-0.26	1.0000 
	3	1	19	19152	4088	15867	-2.77	-0.34	1.0000 
	1	3	19	21726	4797	18186	-2.79	-0.26	1.0000 
	1	-3	19	17183	3790	15024	1.89	-0.08	1.0000 
	-1	-3	19	18103	3711	14998	-2.69	-0.3	1.0000 
	-1	3	19	19552	4085	17191	1.94	-0.17	1.0000 
	-3	-1	19	18530	3709	15354	-2.72	-0.21	1.0000 
	-3	1	19	16930	3358	14803	1.87	-0.01	1.0000 
	-1	-3	20	5680	1872	5997	0.45	0.28	1.0000 
	-1	3	20	7187	1907	6326	-1.21	0.82	1.0000 
	-3	1	20	9781	2085	8774	-1.22	0.91	1.0000 
	-3	-1	20	7553	1584	7916	0.44	0.31	1.0000 
	-3	-1	-20	6531	1995	6879	0.47	0.09	1.0000 
	-1	3	-20	8424	1996	7497	-1.22	-0.96	1.0000 
	-3	1	-20	7557	2009	6678	-1.21	-0.87	1.0000 
	1	3	-20	6711	1755	7055	0.45	-0.28	1.0000 
	-1	-3	-20	5924	1720	6255	0.47	0.04	1.0000 
	1	-3	-20	7445	1794	6568	-1.21	-0.82	1.0000 
	3	-1	-20	8627	1645	7682	-1.22	-0.91	1.0000 
	3	-1	20	7787	2059	6895	-1.21	0.87	1.0000 
	3	1	20	6201	1463	6541	0.47	-0.09	1.0000 
	1	-3	20	8546	1825	7612	-1.22	0.96	1.0000 
	1	3	20	6846	1884	7202	0.47	-0.04	1.0000 
	-3	1	20	8170	1745	7250	-1.22	0.91	1.0000 
	-1	-3	20	8054	1384	8430	0.45	0.28	1.0000 
	-1	3	20	8586	1902	7644	-1.21	0.82	1.0000 
	-3	-1	20	6866	1331	7212	0.44	0.31	1.0000 
	-1	3	21	37168	4035	40853	2.09	-0.45	1.0000 
	-1	-3	21	49360	2919	46654	1.38	0.31	1.0000 
	-3	1	21	42945	3284	46826	2.05	-0.43	1.0000 
	-3	-1	21	46714	3140	44059	1.4	0.39	1.0000 
	-3	1	-21	39070	4100	42796	2.06	0.51	1.0000 
	-1	3	-21	40145	5791	43886	2.04	0.49	1.0000 
	-3	-1	-21	46335	5194	43694	1.4	-0.4	1.0000 
	1	3	-21	49133	4569	46433	1.38	-0.31	1.0000 
	-1	-3	-21	42124	4920	39584	1.41	-0.5	1.0000 
	1	-3	-21	30567	7274	33916	2.09	0.45	1.0000 
	3	1	-21	47447	3446	44771	1.4	-0.39	1.0000 
	3	-1	-21	41534	3391	45352	2.05	0.43	1.0000 
	3	1	21	48650	4434	45943	1.4	0.4	1.0000 
	3	-1	21	41099	7603	44919	2.06	-0.51	1.0000 
	1	3	21	47949	6254	45237	1.41	0.5	1.0000 
	1	-3	21	44289	4018	48214	2.04	-0.49	1.0000 
	-1	3	21	40726	3741	44579	2.09	-0.45	1.0000 
	-1	-3	21	49701	6638	46986	1.38	0.31	1.0000 
	-3	1	21	37532	7406	41166	2.05	-0.43	1.0000 
	-3	-1	21	50751	8143	47982	1.4	0.39	1.0000 
	-1	-3	22	516	336	569	0.23	2.3	1.0000 
	-1	3	22	538	485	593	-0.09	1.51	1.0000 
	-3	1	22	1462	267	1563	-0.04	1.49	1.0000 
	-3	-1	22	959	210	1085	0.22	2.36	1.0000 
	-3	1	-22	704	280	774	-0.09	-1.51	1.0000 
	-1	3	-22	365	209	395	-0.05	-1.52	1.0000 
	-1	-3	-22	801	498	909	0.17	-2.3	1.0000 
	-3	-1	-22	513	441	571	0.19	-2.26	1.0000 
	1	-3	-22	1018	288	1110	-0.09	-1.51	1.0000 
	1	3	-22	1015	261	1135	0.23	-2.3	1.0000 
	3	1	-22	972	320	1100	0.22	-2.36	1.0000 
	3	-1	-22	954	373	1027	-0.04	-1.49	1.0000 
	3	1	22	700	386	786	0.19	2.26	1.0000 
	3	-1	22	237	199	257	-0.09	1.51	1.0000 
	-1	-3	22	898	256	1005	0.23	2.3	1.0000 
	-1	3	22	1243	330	1350	-0.09	1.51	1.0000 
	1	-3	22	1172	236	1264	-0.05	1.52	1.0000 
	1	3	22	432	349	481	0.17	2.3	1.0000 
	-3	1	22	1259	323	1350	-0.04	1.49	1.0000 
	-3	-1	22	1344	337	1514	0.22	2.36	1.0000 
	-3	-1	-22	518	166	576	0.19	-2.26	1.0000 
	3	-1	-22	826	142	891	-0.04	-1.49	1.0000 
	-3	-1	-22	872	174	980	0.19	-2.26	1.0000 
	-1	-3	23	58907	7618	59466	0.24	0.25	1.0000 
	-1	3	23	79184	8148	73122	2.5	1.37	1.0000 
	-3	1	23	72812	8145	67027	2.48	1.34	1.0000 
	-3	-1	23	64838	8049	65407	0.24	0.18	1.0000 
	-1	-3	-23	60649	11186	61246	0.26	-0.17	1.0000 
	-1	3	-23	78579	10740	72512	2.5	-1.29	1.0000 
	-3	-1	-23	63329	9345	63933	0.26	-0.22	1.0000 
	1	-3	-23	70281	11075	64574	2.5	-1.37	1.0000 
	1	3	-23	71136	8611	71750	0.24	-0.25	1.0000 
	3	-1	-23	67364	12190	61802	2.48	-1.34	1.0000 
	3	1	-23	67411	9363	67991	0.24	-0.18	1.0000 
	1	-3	23	78152	8759	72101	2.5	1.29	1.0000 
	3	1	23	69892	9239	70526	0.26	0.22	1.0000 
	-1	-3	23	71808	10595	72425	0.24	0.25	1.0000 
	1	3	23	68245	9683	68878	0.26	0.17	1.0000 
	-1	3	23	75118	12344	69215	2.5	1.37	1.0000 
	-3	1	23	74548	8288	68693	2.48	1.34	1.0000 
	-3	-1	23	64092	10712	64657	0.24	0.18	1.0000 
	-3	-1	-23	66214	7228	66831	0.26	-0.22	1.0000 
	1	-3	-23	48727	4753	43988	2.5	-1.37	1.0000 
	-1	-3	-23	45122	4944	45637	0.26	-0.17	1.0000 
	3	1	-23	56128	6643	56657	0.24	-0.18	1.0000 
	3	-1	-23	60136	7635	54885	2.48	-1.34	1.0000 
	1	-3	23	65758	6738	60215	2.5	1.29	1.0000 
	-3	-1	-23	66798	7516	67418	0.26	-0.22	1.0000 
	-1	-3	-23	61017	6852	61616	0.26	-0.17	1.0000 
	1	-3	-23	66198	7488	60662	2.5	-1.37	1.0000 
	-1	-3	24	5529	2515	4933	0.92	0.78	1.0000 
	-1	3	24	6662	3206	5133	2.22	-0.44	1.0000 
	-3	1	24	10379	1664	8401	2.27	-0.54	1.0000 
	-3	-1	24	8316	2458	7590	0.91	0.79	1.0000 
	-1	-3	-24	9900	1746	9092	0.93	-0.83	1.0000 
	-1	3	-24	11226	1981	9187	2.25	0.5	1.0000 
	-3	-1	-24	8465	1861	7708	0.94	-0.82	1.0000 
	1	3	-24	11021	2060	10177	0.92	-0.78	1.0000 
	1	-3	-24	12884	1847	10721	2.22	0.44	1.0000 
	3	-1	-24	10934	2094	8901	2.27	0.54	1.0000 
	3	1	-24	9339	2225	8569	0.91	-0.79	1.0000 
	1	-3	24	13710	2052	11446	2.25	-0.5	1.0000 
	3	1	24	10207	1724	9376	0.94	0.82	1.0000 
	-1	-3	24	11627	1582	10760	0.92	0.78	1.0000 
	-1	3	24	13524	2337	11306	2.22	-0.44	1.0000 
	1	3	24	11593	2211	10718	0.93	0.83	1.0000 
	-3	-1	24	12320	1880	11436	0.91	0.79	1.0000 
	-3	1	24	12343	1646	10177	2.27	-0.54	1.0000 
	-1	3	-24	11069	1490	9045	2.25	0.5	1.0000 
	-3	-1	-24	7800	2195	7074	0.94	-0.82	1.0000 
	1	3	-24	10333	1394	9516	0.92	-0.78	1.0000 
	1	-3	-24	11376	1744	9349	2.22	0.44	1.0000 
	-1	-3	-24	10023	1702	9210	0.93	-0.83	1.0000 
	3	1	-24	9114	1650	8354	0.91	-0.79	1.0000 
	3	-1	-24	12043	1396	9904	2.27	0.54	1.0000 
	1	-3	24	12836	1627	10649	2.25	-0.5	1.0000 
	-3	-1	-24	12257	1413	11346	0.94	-0.82	1.0000 
	-1	-3	-24	10372	1123	9545	0.93	-0.83	1.0000 
	-1	3	-24	9679	1036	7792	2.25	0.5	1.0000 
	1	3	-24	8862	992	8106	0.92	-0.78	1.0000 
	1	-3	-24	11392	1094	9364	2.22	0.44	1.0000 
	3	-1	-24	12515	1210	10333	2.27	0.54	1.0000 
	3	1	-24	11359	1236	10510	0.91	-0.79	1.0000 
	-1	3	25	10937	6277	11019	0.05	0.7	1.0000 
	-3	-1	25	20969	5002	17709	2.6	-0.1	1.0000 
	-3	1	25	17216	5399	17316	0.04	0.68	1.0000 
	-3	-1	-25	21386	5677	18026	2.65	0.12	1.0000 
	-1	3	-25	24039	5199	24214	0.09	-0.66	1.0000 
	-1	-3	-25	26420	5074	22697	2.63	0.09	1.0000 
	1	3	-25	29053	5104	25160	2.62	0.12	1.0000 
	1	-3	-25	22475	5077	22597	0.05	-0.7	1.0000 
	3	-1	-25	21377	5835	21490	0.04	-0.68	1.0000 
	3	1	-25	23479	5729	20021	2.6	0.1	1.0000 
	1	-3	25	29453	4973	29648	0.09	0.66	1.0000 
	3	1	25	27803	5394	23952	2.65	-0.12	1.0000 
	1	3	25	28227	5399	24374	2.63	-0.09	1.0000 
	-1	3	25	26051	5140	26183	0.05	0.7	1.0000 
	-1	-3	25	33971	4968	29750	2.62	-0.12	1.0000 
	-3	-1	25	31683	4545	27644	2.6	-0.1	1.0000 
	-3	1	25	25013	5164	25136	0.04	0.68	1.0000 
	-3	-1	-25	29325	4060	25366	2.65	0.12	1.0000 
	-1	3	-25	20475	3898	20636	0.09	-0.66	1.0000 
	1	3	-25	29093	4359	25197	2.62	0.12	1.0000 
	1	-3	-25	26637	4323	26771	0.05	-0.7	1.0000 
	-1	-3	-25	31205	4467	27147	2.63	0.09	1.0000 
	3	1	-25	29107	4105	25241	2.6	0.1	1.0000 
	3	-1	-25	25157	4821	25280	0.04	-0.68	1.0000 
	1	-3	25	29990	5148	30187	0.09	0.66	1.0000 
	-3	-1	-25	36462	5006	32031	2.65	0.12	1.0000 
	-1	3	-25	22739	3650	22909	0.09	-0.66	1.0000 
	-1	-3	-25	32494	4636	28350	2.63	0.09	1.0000 
	3	-1	-25	23637	3568	23756	0.04	-0.68	1.0000 
	1	3	-25	25012	3379	21410	2.62	0.12	1.0000 
	1	-3	-25	27965	4506	28102	0.05	-0.7	1.0000 
	3	1	-25	32134	4220	28065	2.6	0.1	1.0000 
	-3	1	26	4946	1283	3964	-1.66	-1.45	1.0000 
	-1	3	-26	5938	1270	4868	-1.65	1.46	1.0000 
	-1	-3	-26	5299	1279	5113	-0.3	1.19	1.0000 
	-3	-1	-26	4289	1542	4139	-0.27	1.21	1.0000 
	1	-3	-26	6072	1104	4991	-1.65	1.44	1.0000 
	1	3	-26	5677	1235	5499	-0.28	1.18	1.0000 
	3	-1	-26	5528	1511	4489	-1.66	1.45	1.0000 
	3	1	26	5408	1511	5243	-0.27	-1.21	1.0000 
	1	3	26	5909	1322	5714	-0.3	-1.19	1.0000 
	1	-3	26	7047	1044	5881	-1.65	-1.46	1.0000 
	-1	-3	26	7044	1261	6848	-0.28	-1.18	1.0000 
	-1	3	26	6781	1274	5638	-1.65	-1.44	1.0000 
	-3	1	26	7185	1252	5999	-1.66	-1.45	1.0000 
	-3	-1	-26	4587	1719	4433	-0.27	1.21	1.0000 
	-1	3	-26	7334	1235	6144	-1.65	1.46	1.0000 
	1	-3	-26	7212	1324	6033	-1.65	1.44	1.0000 
	1	3	-26	6800	1282	6607	-0.28	1.18	1.0000 
	-1	-3	-26	5147	1376	4963	-0.3	1.19	1.0000 
	3	1	-26	6690	1164	6475	-0.31	1.15	1.0000 
	3	-1	-26	5453	1620	4421	-1.66	1.45	1.0000 
	1	-3	26	8033	1372	6787	-1.65	-1.46	1.0000 
	-1	-3	26	6741	1216	6549	-0.28	-1.18	1.0000 
	-3	-1	-26	7043	1265	6859	-0.27	1.21	1.0000 
	-1	-3	-26	6600	1126	6395	-0.3	1.19	1.0000 
	1	3	-26	5814	952	5634	-0.28	1.18	1.0000 
	-1	3	-26	5962	849	4890	-1.65	1.46	1.0000 
	1	-3	-26	7500	1051	6298	-1.65	1.44	1.0000 
	3	-1	-26	7055	1030	5880	-1.66	1.45	1.0000 
	3	1	-26	6893	1085	6676	-0.31	1.15	1.0000 
	1	3	-27	11408	3810	19242	7.05	-0.52	1.0000 
	1	-3	27	18318	3122	24205	-4.51	-0.85	1.0000 
	-1	-3	27	15317	2692	24233	7.05	0.52	1.0000 
	-1	3	-27	22300	3842	28755	-4.51	0.85	1.0000 
	-1	-3	-27	20456	2050	30546	7.01	-0.53	1.0000 
	-3	-1	-27	461489	125812	505601	7.01	-0.44	1.0000 
	1	3	-27	19633	3347	29593	7.05	-0.52	1.0000 
	1	-3	-27	24108	1557	30753	-4.47	0.83	1.0000 
	3	1	-27	21562	4005	31948	7.04	-0.6	1.0000 
	3	-1	-27	23336	1766	29907	-4.49	0.8	1.0000 
	-1	-3	27	19296	2642	29179	7.05	0.52	1.0000 
	-3	-1	-27	470019	128027	514528	7.01	-0.44	1.0000 
	1	-3	-27	24898	2601	31645	-4.47	0.83	1.0000 
	-1	3	-27	21320	2355	27640	-4.51	0.85	1.0000 
	-1	-3	-27	21279	2478	31549	7.01	-0.53	1.0000 
	1	3	-27	19387	2321	29291	7.05	-0.52	1.0000 
	3	1	-27	24434	2363	35425	7.04	-0.6	1.0000 
	3	-1	-27	17309	3573	23022	-4.49	0.8	1.0000 
	-1	-3	-28	4404	2217	6418	-3.04	0.17	1.0000 
	-3	-1	-28	4046	2354	5994	-3.06	0.08	1.0000 
	-1	3	-28	5192	1548	6536	-1.89	1.11	1.0000 
	1	3	-28	6413	1666	8833	-3.08	0.09	1.0000 
	1	-3	-28	5846	1745	7274	-1.9	1.07	1.0000 
	3	1	-28	6201	1566	8574	-3.06	0.2	1.0000 
	3	-1	-28	5320	1736	6693	-1.91	1.09	1.0000 
	-1	-3	28	5493	1522	7747	-3.08	-0.09	1.0000 
	-3	-1	-28	6737	1776	9194	-3.06	0.08	1.0000 
	-1	3	-28	5489	1227	6870	-1.89	1.11	1.0000 
	-1	-3	-28	5169	1299	7335	-3.04	0.17	1.0000 
	1	3	-28	5488	1353	7741	-3.08	0.09	1.0000 
	1	-3	-28	6627	1596	8144	-1.9	1.07	1.0000 
	3	-1	-28	4649	1863	5936	-1.91	1.09	1.0000 
	3	1	-28	5970	1501	8302	-3.06	0.2	1.0000 
	-1	3	-29	20371	3505	17494	-2.3	0.65	1.0000 
	-3	-1	-29	16887	3756	12791	3.78	-1.03	1.0000 
	-1	-3	-29	20317	3830	15775	3.81	-1.13	1.0000 
	1	-3	-29	18984	3399	16247	-2.27	0.75	1.0000 
	1	3	-29	23093	3518	18276	3.76	-1	1.0000 
	3	-1	-29	16748	3259	14168	-2.29	0.64	1.0000 
	3	1	-29	21430	3502	16765	3.8	-1.1	1.0000 
	-1	-3	29	20074	2993	15600	3.76	1	1.0000 
	-3	-1	-29	22944	3212	18127	3.78	-1.03	1.0000 
	1	3	-29	21609	2954	16958	3.76	-1	1.0000 
	-1	3	-29	17730	2705	15053	-2.3	0.65	1.0000 
	-1	-3	-29	23508	3346	18604	3.81	-1.13	1.0000 
	1	-3	-29	22559	3308	19567	-2.27	0.75	1.0000 
	3	-1	-29	18746	2831	16011	-2.29	0.64	1.0000 
	3	1	-29	25153	3349	20078	3.8	-1.1	1.0000 
	-3	-1	-30	3317	1508	3757	0.82	-0.04	1.0000 
	-1	3	-30	4575	1720	5157	0.93	0.06	1.0000 
	-1	-3	-30	4199	1610	4690	0.82	0.04	1.0000 
	3	1	-30	4667	865	5192	0.83	0.08	1.0000 
	1	3	-30	5171	915	5719	0.82	0	1.0000 
	3	-1	-30	4550	1776	5134	0.93	0.08	1.0000 
	1	-3	-30	4339	1636	4903	0.92	0.07	1.0000 
	-1	3	-30	4070	1331	4620	0.93	0.06	1.0000 
	-3	-1	-30	4600	1607	5115	0.82	-0.04	1.0000 
	1	-3	-30	5425	735	6054	0.92	0.07	1.0000 
	-1	-3	-30	4627	1564	5142	0.82	0.04	1.0000 
	1	3	-30	4681	688	5203	0.82	0	1.0000 
	3	1	-30	5426	759	5991	0.83	0.08	1.0000 
	3	-1	-30	5002	707	5613	0.93	0.08	1.0000 
	-1	-3	-31	2586	805	2232	-0.8	0.16	1.0000 
	-1	3	-31	3513	809	2435	2.23	0.82	1.0000 
	-3	-1	-31	2064	650	1743	-0.81	0.12	1.0000 
	1	3	-31	2584	696	2217	-0.83	0.08	1.0000 
	3	1	-31	2203	670	1873	-0.81	0.12	1.0000 
	1	-3	-31	3577	853	2488	2.23	0.8	1.0000 
	3	-1	-31	2907	655	1937	2.22	0.81	1.0000 
	-3	-1	-31	2945	787	2559	-0.81	0.12	1.0000 
	-1	3	-31	2249	482	1403	2.23	0.82	1.0000 
	-1	-3	-31	2615	736	2259	-0.8	0.16	1.0000 
	1	-3	-31	2720	571	1781	2.23	0.8	1.0000 
	1	3	-31	1980	554	1661	-0.83	0.08	1.0000 
	3	1	-31	1990	526	1677	-0.81	0.12	1.0000 
	3	-1	-31	3060	680	2063	2.22	0.81	1.0000 
	-1	-3	-32	6187	1577	5613	0.83	0.09	1.0000 
	-3	-1	-32	4536	1533	4059	0.81	0.03	1.0000 
	1	3	-32	6880	1674	6272	0.84	0.1	1.0000 
	-1	3	-32	5727	1501	5283	0.68	0.37	1.0000 
	1	-3	-32	6273	1606	5790	0.71	0.34	1.0000 
	3	-1	-32	6048	1621	5578	0.7	0.32	1.0000 
	3	1	-32	6955	1696	6322	0.87	0.17	1.0000 
	-1	3	-32	4803	1171	4397	0.68	0.37	1.0000 
	-3	-1	-32	6512	1498	5938	0.81	0.03	1.0000 
	-1	-3	-32	6262	1433	5684	0.83	0.09	1.0000 
	1	-3	-32	6148	1454	5670	0.71	0.34	1.0000 
	1	3	-32	5947	1357	5383	0.84	0.1	1.0000 
	3	-1	-32	6339	1460	5857	0.7	0.32	1.0000 
	3	1	-32	5984	1357	5398	0.87	0.17	1.0000 
	-3	-1	-33	14	309	-55	-0.37	-0.76	1.0000 
	-1	3	-33	89	72	94	-0.07	0.1	1.0000 
	1	3	-33	40	100	75	-0.39	-0.77	1.0000 
	-1	-3	-33	8	164	14	-0.37	-0.73	1.0000 
	3	-1	-33	3	110	4	-0.05	0.08	1.0000 
	1	-3	-33	149	129	154	-0.05	0.03	1.0000 
	3	1	-33	14	232	-101	-0.38	-0.74	1.0000 
	-3	-1	-33	7	194	5	-0.37	-0.76	1.0000 
	-1	3	-33	121	93	126	-0.07	0.1	1.0000 
	-1	-3	-33	7	122	5	-0.37	-0.73	1.0000 
	3	1	-33	111	266	167	-0.38	-0.74	1.0000 
	1	3	-33	15	213	-3	-0.39	-0.77	1.0000 
	1	-3	-33	0	309	-212	-0.05	0.03	1.0000 
	3	-1	-33	143	174	148	-0.05	0.08	1.0000 
	1	3	-34	558	190	399	-0.83	-0.08	1.0000 
	1	-3	-34	312	197	326	0.03	-0.32	1.0000 
	-3	-1	-34	15	288	-6	-0.84	-0.12	1.0000 
	-1	-3	-34	467	225	324	-0.81	-0.05	1.0000 
	-1	3	-34	148	97	154	0.01	-0.26	1.0000 
	3	1	-34	192	99	105	-0.81	-0.01	1.0000 
	3	-1	-34	460	218	469	0	-0.3	1.0000 
	-1	3	-34	1	173	-19	0.01	-0.26	1.0000 
	-3	-1	-34	335	207	215	-0.84	-0.12	1.0000 
	-1	-3	-34	80	179	28	-0.81	-0.05	1.0000 
	1	-3	-34	136	159	145	0.03	-0.32	1.0000 
	3	-1	-34	88	182	91	0	-0.3	1.0000 
	3	1	-34	13	331	-24	-0.81	-0.01	1.0000 
	1	3	-34	514	193	362	-0.83	-0.08	1.0000 
	-3	-1	-35	8719	2765	8322	0.45	-1.13	1.0000 
	-1	3	-35	4052	1481	3958	-0.22	1.11	1.0000 
	-1	-3	-35	9382	3980	8975	0.44	-1.12	1.0000 
	1	3	-35	9861	2554	9460	0.42	-1.13	1.0000 
	1	-3	-35	10581	2880	10474	-0.19	1.12	1.0000 
	3	1	-35	10583	2850	10167	0.43	-1.12	1.0000 
	3	-1	-35	10579	2768	10463	-0.2	1.09	1.0000 
	-3	-1	-35	9644	3887	9228	0.45	-1.13	1.0000 
	-1	3	-35	5547	1732	5442	-0.22	1.11	1.0000 
	-1	-3	-35	9986	2454	9567	0.44	-1.12	1.0000 
	1	-3	-35	9781	2396	9677	-0.19	1.12	1.0000 
	1	3	-35	8303	2274	7934	0.42	-1.13	1.0000 
	3	1	-35	9056	2530	8670	0.43	-1.12	1.0000 
	3	-1	-35	9967	2435	9854	-0.2	1.09	1.0000 
	-1	3	-36	5	127	-22	-0.37	0.31	1.0000 
	-3	-1	-36	63	94	30	0.83	0.84	1.0000 
	1	-3	-36	146	177	197	-0.39	0.28	1.0000 
	-1	-3	-36	193	129	154	0.88	0.87	1.0000 
	1	3	-36	310	145	263	0.82	0.79	1.0000 
	3	-1	-36	326	217	402	-0.4	0.28	1.0000 
	3	1	-36	487	215	437	0.88	0.84	1.0000 
	-1	3	-36	111	114	155	-0.37	0.31	1.0000 
	-1	-3	-36	490	286	446	0.88	0.87	1.0000 
	1	3	-36	192	96	150	0.82	0.79	1.0000 
	-3	-1	-36	29	288	-115	0.83	0.84	1.0000 
	1	-3	-36	187	172	244	-0.39	0.28	1.0000 
	3	1	-36	540	275	489	0.88	0.84	1.0000 
	3	-1	-36	355	265	434	-0.4	0.28	1.0000 
	-3	-1	-37	18018	5158	17507	-0.46	-0.46	1.0000 
	1	3	-37	9072	2603	8695	-0.47	-0.49	1.0000 
	1	-3	-37	23042	5930	20994	1.52	0.27	1.0000 
	-1	-3	-37	20358	5777	19805	-0.46	-0.48	1.0000 
	3	-1	-37	21964	5619	20020	1.47	0.31	1.0000 
	-1	-3	-37	18805	5026	18274	-0.46	-0.48	1.0000 
	1	3	-37	11153	3100	10735	-0.47	-0.49	1.0000 
	-3	-1	-37	17667	4633	17161	-0.46	-0.46	1.0000 
	1	-3	-37	20246	4941	18329	1.52	0.27	1.0000 
	-1	3	-37	7934	2265	6792	1.46	0.32	1.0000 
	3	-1	-37	20448	4926	18574	1.47	0.31	1.0000 
	-3	2	0	14939	571	1183	-19.45	0.22	1.0000 
	-3	-2	0	14622	643	1504	-18.18	-0.39	1.0000 
	-3	2	0	15362	537	1304	-19.45	0.22	1.0000 
	-3	-2	0	13993	647	1307	-18.18	-0.39	1.0000 
	3	2	0	14265	823	1391	-18.18	0.39	1.0000 
	-3	2	0	16261	738	1575	-19.45	0.22	1.0000 
	-3	2	-1	199100	6529	245869	-10.96	1.54	1.0000 
	3	2	1	200185	6410	241887	9.83	-0.41	1.0000 
	-3	2	1	192289	6484	238037	-10.92	-1.08	1.0000 
	-3	2	-1	193459	6391	239596	-10.96	1.54	1.0000 
	-3	-2	2	29377	1479	37462	4.71	2.74	1.0000 
	-3	2	2	27138	1457	37858	6.54	1.61	1.0000 
	-3	2	-2	24416	1353	34482	6.49	-1.01	1.0000 
	-3	2	2	27043	1438	37746	6.54	1.61	1.0000 
	-3	-2	2	29961	1549	38123	4.71	2.74	1.0000 
	-3	2	-2	26211	1407	36610	6.49	-1.01	1.0000 
	-2	-3	-2	26841	1272	34599	4.7	-2.93	1.0000 
	-3	-2	-2	30006	1510	38288	4.74	-3.02	1.0000 
	2	-3	2	25298	1171	35569	6.48	1.48	1.0000 
	3	2	2	28601	1764	36695	4.74	3.02	1.0000 
	3	-2	2	28356	1428	39138	6.49	1.01	1.0000 
	2	3	2	27126	1244	34924	4.7	2.93	1.0000 
	-2	3	-2	25851	1502	36225	6.48	-1.48	1.0000 
	-3	2	2	25422	1402	35825	6.54	1.61	1.0000 
	-3	-2	2	28781	1503	36788	4.71	2.74	1.0000 
	-3	-2	3	283324	8895	340486	-11.36	0.68	1.0000 
	-3	2	3	311952	9019	346483	6.5	-4.39	1.0000 
	-3	2	3	309035	8922	343406	6.5	-4.39	1.0000 
	-3	-2	3	286931	8979	344439	-11.36	0.68	1.0000 
	-2	3	-3	306196	8598	340358	6.48	4.58	1.0000 
	-3	-2	-3	287493	9037	345346	-11.41	-0.32	1.0000 
	-3	2	-3	311741	8983	346018	6.43	4.75	1.0000 
	-2	-3	-3	287708	8883	345530	-11.4	-0.55	1.0000 
	3	-2	3	314676	8970	349112	6.43	-4.75	1.0000 
	2	3	3	286458	8791	344159	-11.4	0.55	1.0000 
	3	2	3	283727	8850	341217	-11.41	0.32	1.0000 
	-3	2	3	308066	8916	342384	6.5	-4.39	1.0000 
	-3	-2	3	280586	8815	337484	-11.36	0.68	1.0000 
	-3	2	4	24112	1493	37817	-8.65	1.61	1.0000 
	-3	-2	4	27592	1597	35979	-5.19	-0.95	1.0000 
	-3	2	4	24848	1509	38738	-8.65	1.61	1.0000 
	-3	-2	4	28341	1815	36833	-5.19	-0.95	1.0000 
	-3	2	-4	22269	1402	35417	-8.62	-1.1	1.0000 
	-2	3	-4	21695	1212	34733	-8.63	-1.51	1.0000 
	-3	-2	-4	31554	1616	40444	-5.19	0.31	1.0000 
	-2	-3	-4	29168	1423	37751	-5.19	0.6	1.0000 
	2	-3	4	21400	1144	34359	-8.63	1.51	1.0000 
	3	-2	4	22049	1325	35139	-8.62	1.1	1.0000 
	2	3	4	27907	1905	36315	-5.19	-0.6	1.0000 
	3	2	4	30351	1502	39081	-5.19	-0.31	1.0000 
	-3	-2	4	27761	1579	36172	-5.19	-0.95	1.0000 
	-3	2	4	24668	1516	38513	-8.65	1.61	1.0000 
	-3	2	5	345333	9712	372530	-5.07	1.61	1.0000 
	-3	-2	5	371310	9823	377147	1.07	0.39	1.0000 
	-3	-2	5	370659	9782	376491	1.07	0.39	1.0000 
	-2	3	-5	339820	9319	367012	-5.11	-2.09	1.0000 
	-3	2	-5	340886	9551	367372	-4.97	-1.91	1.0000 
	-3	-2	-5	373428	9923	378820	0.98	-0.3	1.0000 
	-2	-3	-5	363876	9536	368831	0.92	-0.53	1.0000 
	3	-2	5	354385	9788	381383	-4.97	1.91	1.0000 
	2	3	5	355441	9254	360339	0.92	0.53	1.0000 
	3	2	5	362539	9555	367852	0.98	0.3	1.0000 
	-3	-2	5	369911	9785	375737	1.07	0.39	1.0000 
	-3	2	5	340949	9604	367975	-5.07	1.61	1.0000 
	-3	2	6	11702	2059	20659	7.81	-1.59	1.0000 
	-3	-2	6	7491	976	17663	10.26	0.35	1.0000 
	-3	-2	6	7473	967	17635	10.26	0.35	1.0000 
	-3	2	-6	10500	1008	18982	7.78	1.2	1.0000 
	-2	3	-6	9019	1574	17038	7.83	1.38	1.0000 
	3	-2	6	10783	952	19362	7.78	-1.2	1.0000 
	2	-3	6	9199	1524	17286	7.83	-1.38	1.0000 
	2	3	6	7388	904	17408	10.17	0.67	1.0000 
	-3	2	6	10579	1033	19157	7.81	-1.59	1.0000 
	-3	-2	6	7052	956	16984	10.26	0.35	1.0000 
	-3	-2	7	364423	9947	379967	-2.85	1.04	1.0000 
	-3	2	7	448490	9895	376402	-12.4	1.72	1.0000 
	-3	2	-7	449092	9894	377598	-12.28	-1.77	1.0000 
	-3	-2	-7	369930	10196	386097	-2.95	-1.34	1.0000 
	-2	3	-7	462236	9957	388549	-12.48	-1.94	1.0000 
	2	-3	7	456035	9702	382865	-12.48	1.94	1.0000 
	3	-2	7	446362	9708	375095	-12.28	1.77	1.0000 
	3	2	7	359538	9826	375479	-2.95	1.34	1.0000 
	2	3	7	369930	10014	386647	-3.04	1.28	1.0000 
	-3	2	7	442662	9764	371064	-12.4	1.72	1.0000 
	-3	-2	7	366469	10003	382056	-2.85	1.04	1.0000 
	-2	3	8	16543	1656	37341	14.25	1.91	1.0000 
	-3	2	8	19538	1842	41668	14.2	1.62	1.0000 
	-3	-2	8	23462	1794	40691	10.74	0.8	1.0000 
	-2	3	-8	17898	2157	39333	14.23	-1.89	1.0000 
	-3	2	-8	18412	1784	40198	14.27	-2.17	1.0000 
	-3	-2	-8	21493	1782	38099	10.75	-0.43	1.0000 
	2	-3	8	17256	1958	38378	14.23	1.89	1.0000 
	2	3	8	21854	1678	38570	10.74	0.64	1.0000 
	3	2	8	21720	1733	38401	10.75	0.43	1.0000 
	-2	3	8	15839	1641	36279	14.25	1.91	1.0000 
	-3	2	8	19450	1852	41539	14.2	1.62	1.0000 
	-3	-2	8	22383	1744	39266	10.74	0.8	1.0000 
	-2	3	9	136250	4865	143291	-2.11	0.4	1.0000 
	-3	2	9	132449	4785	139438	-2.13	0.6	1.0000 
	-3	-2	9	153950	4881	143674	-2.94	0.37	1.0000 
	-2	3	-9	136035	4753	143191	-2.15	-0.72	1.0000 
	-3	-2	-9	150078	4873	139560	-3.04	-0.54	1.0000 
	-3	2	-9	137908	4958	145103	-2.15	-0.56	1.0000 
	-2	-3	-9	153952	4891	143256	-3.06	-0.39	1.0000 
	2	3	9	154247	4846	143541	-3.06	0.39	1.0000 
	3	2	9	151604	4835	141032	-3.04	0.54	1.0000 
	-2	3	9	137385	4926	144455	-2.11	0.4	1.0000 
	-3	-2	9	150201	4772	140053	-2.94	0.37	1.0000 
	-3	2	9	134345	4866	141384	-2.13	0.6	1.0000 
	-2	3	10	8303	879	12356	-4.43	-0.38	1.0000 
	-3	-2	10	14117	1621	18654	-3.92	0.85	1.0000 
	-3	2	-10	9793	963	14192	-4.46	0.28	1.0000 
	-3	-2	-10	11193	1073	15278	-3.94	-0.52	1.0000 
	-2	3	-10	11098	1287	15868	-4.55	0.53	1.0000 
	3	2	10	11015	1013	15069	-3.94	0.52	1.0000 
	-2	3	10	12423	1095	17291	-4.43	-0.38	1.0000 
	-3	-2	10	11268	1479	15354	-3.92	0.85	1.0000 
	-2	3	11	132161	5069	145766	3.95	1.93	1.0000 
	-3	-2	11	127231	4892	141586	-4.34	0.1	1.0000 
	-3	2	11	126589	5209	140189	4.03	1.82	1.0000 
	-2	-3	-11	105589	4305	118964	-4.42	-0.2	1.0000 
	3	-2	11	138169	5191	152270	4	1.96	1.0000 
	2	3	11	106216	4269	119629	-4.42	0.2	1.0000 
	-3	2	11	125319	4904	138852	4.03	1.82	1.0000 
	-2	3	11	131044	5062	144593	3.95	1.93	1.0000 
	-3	-2	11	127395	4923	141759	-4.34	0.1	1.0000 
	-2	-3	12	12002	1342	9267	-3.05	1.53	1.0000 
	-2	3	12	10549	796	8691	-2.14	0.86	1.0000 
	-3	2	12	10996	1967	9031	-2.21	0.74	1.0000 
	-3	-2	12	16523	3240	13288	-3.07	1.68	1.0000 
	-2	-3	-12	12744	1021	9913	-3.08	-1.71	1.0000 
	-2	3	-12	12520	1209	10431	-2.19	-0.74	1.0000 
	2	-3	12	12986	1080	10857	-2.19	0.74	1.0000 
	2	3	12	12131	1063	9371	-3.08	1.71	1.0000 
	-3	2	12	11594	1858	9574	-2.21	0.74	1.0000 
	-2	3	12	10598	806	8735	-2.14	0.86	1.0000 
	-3	-2	12	14430	1755	11413	-3.07	1.68	1.0000 
	-2	3	13	57261	3179	74520	-7.49	1	1.0000 
	-3	-2	13	60843	4364	72838	5.14	-0.27	1.0000 
	-3	2	13	55721	3227	72463	-7.37	0.86	1.0000 
	-3	-2	-13	52350	3099	63620	5.19	0.03	1.0000 
	3	2	13	53463	2997	64847	5.19	-0.03	1.0000 
	-3	2	13	57976	3577	75032	-7.37	0.86	1.0000 
	-2	3	13	57627	3204	74938	-7.49	1	1.0000 
	-3	-2	13	61351	4135	73394	5.14	-0.27	1.0000 
	-3	2	14	6303	1111	5382	1.39	-0.95	1.0000 
	-2	3	14	7060	2407	6035	1.45	-0.83	1.0000 
	-2	-3	14	12070	1376	11256	0.84	0.78	1.0000 
	-3	-2	14	6904	836	6269	0.87	1.05	1.0000 
	-2	3	-14	6450	1782	5509	1.39	0.86	1.0000 
	-3	-2	-14	4872	1901	4354	0.84	-0.81	1.0000 
	-2	-3	-14	5001	2376	4466	0.86	-1.08	1.0000 
	2	-3	-14	5140	2183	4269	1.45	0.83	1.0000 
	2	-3	14	6760	1635	5796	1.39	-0.86	1.0000 
	2	3	14	4594	1986	4081	0.86	1.08	1.0000 
	3	2	14	5230	2218	4693	0.84	0.81	1.0000 
	-2	3	14	4705	2162	3873	1.45	-0.83	1.0000 
	-3	2	14	5899	1048	5009	1.39	-0.95	1.0000 
	-3	-2	14	6074	843	5478	0.87	1.05	1.0000 
	-3	2	15	3874	2528	4973	1.83	0.19	1.0000 
	-2	3	15	5199	1794	6443	1.8	0.25	1.0000 
	-2	-3	15	5252	1901	6568	-1.9	-1.33	1.0000 
	-3	-2	15	5292	2210	6625	-1.92	-1.33	1.0000 
	-3	-2	-15	3347	2643	4420	-1.92	1.52	1.0000 
	-2	3	-15	3763	1796	4851	1.83	-0.15	1.0000 
	-2	-3	-15	3503	1780	4613	-1.94	1.49	1.0000 
	2	-3	-15	3419	1795	4440	1.8	-0.25	1.0000 
	2	-3	15	4180	654	5323	1.83	0.15	1.0000 
	3	2	15	3676	2302	4799	-1.92	-1.52	1.0000 
	2	3	15	4427	1663	5672	-1.94	-1.49	1.0000 
	-2	3	15	4560	1795	5729	1.8	0.25	1.0000 
	-3	-2	15	4755	1780	6021	-1.92	-1.33	1.0000 
	-3	2	15	3358	2365	4386	1.83	0.19	1.0000 
	-2	-3	15	4770	1699	6026	-1.9	-1.33	1.0000 
	-2	3	16	184	224	63	1.21	-0.58	1.0000 
	-2	-3	16	693	157	278	2.34	-1.21	1.0000 
	-3	-2	16	919	132	421	2.37	-1.11	1.0000 
	-3	2	16	295	209	134	1.22	-0.61	1.0000 
	-2	-3	-16	541	177	178	2.35	1.18	1.0000 
	-3	-2	-16	535	159	179	2.32	1.24	1.0000 
	-2	3	-16	413	135	217	1.23	0.64	1.0000 
	2	-3	-16	409	186	216	1.21	0.58	1.0000 
	2	3	-16	818	151	364	2.34	1.21	1.0000 
	2	3	16	431	265	113	2.35	-1.18	1.0000 
	2	-3	16	39	225	-10	1.23	-0.64	1.0000 
	3	2	16	141	305	-22	2.32	-1.24	1.0000 
	-2	3	16	416	177	221	1.21	-0.58	1.0000 
	-2	-3	16	830	145	372	2.34	-1.21	1.0000 
	-3	-2	16	827	137	357	2.37	-1.11	1.0000 
	-3	2	16	647	200	397	1.22	-0.61	1.0000 
	-2	3	17	71640	3468	78934	2.95	-0.59	1.0000 
	-2	-3	17	82510	3373	80206	0.89	-0.36	1.0000 
	-3	2	17	67905	4217	75116	2.99	-0.43	1.0000 
	-2	3	-17	69710	4251	76959	2.97	0.37	1.0000 
	-2	-3	-17	79233	3577	77044	0.86	0.24	1.0000 
	2	3	-17	83544	3433	81226	0.89	0.36	1.0000 
	3	2	17	81894	3710	79638	0.87	-0.31	1.0000 
	2	3	17	79913	3540	77714	0.86	-0.24	1.0000 
	2	-3	17	70215	3605	77490	2.97	-0.37	1.0000 
	-2	3	17	70348	3466	77577	2.95	-0.59	1.0000 
	-2	-3	17	80847	6061	78567	0.89	-0.36	1.0000 
	-3	2	17	65556	4407	72644	2.99	-0.43	1.0000 
	-2	3	18	4253	2361	5909	-2.58	0.06	1.0000 
	-3	2	18	3944	2973	5533	-2.57	0.1	1.0000 
	-2	-3	18	2488	2333	4090	-3.12	0.27	1.0000 
	-2	3	-18	2983	1763	4360	-2.53	-0.14	1.0000 
	-2	-3	-18	1466	1401	2749	-3.14	-0.24	1.0000 
	-3	-2	-18	2908	1715	4633	-3.14	-0.27	1.0000 
	2	3	-18	4171	790	6187	-3.12	-0.27	1.0000 
	2	3	18	1946	1505	3394	-3.14	0.24	1.0000 
	2	-3	18	2473	1640	3738	-2.53	0.14	1.0000 
	3	2	18	2562	2605	4193	-3.14	0.27	1.0000 
	-2	3	18	3823	2270	5401	-2.58	0.06	1.0000 
	-2	-3	18	3339	1355	5164	-3.12	0.27	1.0000 
	-3	2	18	3941	2588	5529	-2.57	0.1	1.0000 
	-2	-3	19	139886	8422	153069	3.78	0.94	1.0000 
	-2	3	19	153020	7973	136934	4.64	-2.23	1.0000 
	-3	2	19	170359	7727	153078	4.72	-2.22	1.0000 
	-2	3	-19	169510	8331	152193	4.75	2.27	1.0000 
	-2	-3	-19	131008	11505	143926	3.83	-0.96	1.0000 
	3	-2	-19	177001	8010	159379	4.72	2.22	1.0000 
	2	3	-19	150415	8981	164074	3.78	-0.94	1.0000 
	2	-3	-19	158517	9514	142138	4.64	2.23	1.0000 
	2	-3	19	168752	8098	151475	4.75	-2.27	1.0000 
	3	2	19	142117	8324	155498	3.81	0.98	1.0000 
	-3	2	19	169337	7845	152109	4.72	-2.22	1.0000 
	-2	-3	19	143053	8042	156381	3.78	0.94	1.0000 
	-2	3	19	161670	8972	145125	4.64	-2.23	1.0000 
	-2	3	20	7223	2102	7863	0.81	0.24	1.0000 
	-3	2	20	9095	1688	9809	0.81	0.12	1.0000 
	-3	-2	-20	3172	2002	3806	1.19	0.64	1.0000 
	-2	-3	-20	2947	3309	3533	1.15	0.67	1.0000 
	-2	3	-20	6686	1743	7303	0.82	0	1.0000 
	-3	2	-20	6022	1825	6616	0.82	-0.11	1.0000 
	2	3	-20	7032	2044	7983	1.22	0.64	1.0000 
	2	3	20	4595	2834	5323	1.15	-0.67	1.0000 
	2	-3	20	2149	838	2504	0.82	0	1.0000 
	3	2	20	6662	1961	7571	1.19	-0.64	1.0000 
	3	-2	20	6643	1958	7266	0.82	0.11	1.0000 
	-2	3	20	7781	2080	8444	0.81	0.24	1.0000 
	-2	3	21	190901	9959	202564	2.94	-0.79	1.0000 
	-2	-3	21	215448	10178	204472	2.62	-1.11	1.0000 
	-3	2	21	191065	11149	202787	2.95	-0.85	1.0000 
	-3	-2	-21	213884	10684	203077	2.59	1.11	1.0000 
	-2	3	-21	200941	10458	212944	2.95	0.9	1.0000 
	3	-2	-21	194026	11836	205837	2.95	0.85	1.0000 
	2	-3	-21	176877	12959	188109	2.94	0.79	1.0000 
	2	3	-21	237231	11204	225708	2.62	1.11	1.0000 
	2	-3	21	198438	11798	210367	2.95	-0.9	1.0000 
	3	-2	21	203351	12246	215338	2.93	-0.83	1.0000 
	2	3	21	221169	10657	210342	2.55	-1.14	1.0000 
	3	2	21	216262	10602	205395	2.59	-1.11	1.0000 
	-2	-3	21	220177	10431	209080	2.62	-1.11	1.0000 
	-2	3	21	193985	10160	205741	2.94	-0.79	1.0000 
	-3	2	21	183428	11170	194917	2.95	-0.85	1.0000 
	-3	2	22	9186	2327	8655	0.74	-1.56	1.0000 
	-2	-3	-22	5101	1727	5940	-1.25	-0.03	1.0000 
	-3	-2	-22	4297	1988	5065	-1.24	-0.04	1.0000 
	-3	2	-22	7169	2021	6678	0.76	1.57	1.0000 
	3	-2	-22	3348	4122	3010	0.74	1.56	1.0000 
	2	3	-22	9054	1778	10103	-1.18	0.11	1.0000 
	3	2	22	5602	2320	6475	-1.24	0.04	1.0000 
	2	-3	22	10007	1599	9456	0.75	-1.68	1.0000 
	2	3	22	4130	2440	4888	-1.25	0.03	1.0000 
	3	-2	22	10346	1663	9766	0.76	-1.57	1.0000 
	-2	-3	22	7655	1210	8621	-1.18	-0.11	1.0000 
	-3	2	22	7550	2492	7064	0.74	-1.56	1.0000 
	-3	-2	-22	5240	1342	6085	-1.24	-0.04	1.0000 
	3	-2	-22	8793	1035	8272	0.74	1.56	1.0000 
	2	-3	22	4164	2419	3790	0.75	-1.68	1.0000 
	-2	-3	23	171839	19022	170500	-0.37	0.23	1.0000 
	-2	3	23	243373	24027	225631	4.02	-1.4	1.0000 
	-3	2	23	240504	23797	222714	4.06	-1.42	1.0000 
	-3	-2	-23	220455	23579	218952	-0.37	-0.26	1.0000 
	-2	3	-23	246237	24709	228356	4.03	1.38	1.0000 
	-3	2	-23	237677	23502	220291	3.99	1.37	1.0000 
	-2	-3	-23	205189	23306	203430	-0.44	-0.19	1.0000 
	2	3	-23	204819	23132	203357	-0.37	-0.23	1.0000 
	2	-3	-23	250994	24778	232971	4.02	1.4	1.0000 
	3	-2	-23	256764	25434	238372	4.06	1.42	1.0000 
	3	2	23	223153	23758	221641	-0.37	0.26	1.0000 
	2	-3	23	221140	25134	204211	4.03	-1.38	1.0000 
	2	3	23	213277	24743	211484	-0.44	0.19	1.0000 
	3	-2	23	174363	17731	159515	3.99	-1.37	1.0000 
	-3	2	23	225739	23337	208513	4.06	-1.42	1.0000 
	-2	-3	23	211735	23596	210249	-0.37	0.23	1.0000 
	-2	3	23	239134	23574	221550	4.02	-1.4	1.0000 
	-3	2	-23	221605	21551	204828	3.99	1.37	1.0000 
	-3	-2	-23	200295	21082	198862	-0.37	-0.26	1.0000 
	-2	-3	-23	215338	22363	213536	-0.44	-0.19	1.0000 
	3	-2	-23	160338	15303	145869	4.06	1.42	1.0000 
	2	3	-23	181475	18866	180099	-0.37	-0.23	1.0000 
	2	-3	-23	216460	20929	199745	4.02	1.4	1.0000 
	3	2	-23	198991	20625	197254	-0.44	-0.17	1.0000 
	2	-3	23	185754	18089	170264	4.03	-1.38	1.0000 
	-2	-3	23	179489	18745	178121	-0.37	0.23	1.0000 
	-3	-2	-23	192657	21106	191252	-0.37	-0.26	1.0000 
	-3	2	-23	187341	18260	171939	3.99	1.37	1.0000 
	-2	-3	-23	174634	18936	173012	-0.44	-0.19	1.0000 
	2	-3	-23	189006	19156	173406	4.02	1.4	1.0000 
	2	3	-23	143091	15411	141869	-0.37	-0.23	1.0000 
	3	-2	-23	184904	17745	169343	4.06	1.42	1.0000 
	3	2	-23	162622	17245	161052	-0.44	-0.17	1.0000 
	-2	-3	24	199	355	498	-1.81	0.35	1.0000 
	-2	3	24	296	543	616	-1.64	0.63	1.0000 
	-3	-2	24	225	554	544	-1.83	0.31	1.0000 
	-3	-2	-24	304	278	666	-1.82	-0.55	1.0000 
	-3	2	-24	449	689	836	-1.66	-0.61	1.0000 
	-2	-3	-24	312	425	683	-1.84	-0.52	1.0000 
	-2	3	-24	424	345	805	-1.67	-0.64	1.0000 
	2	-3	-24	659	623	1110	-1.64	-0.63	1.0000 
	2	3	-24	758	506	1279	-1.81	-0.35	1.0000 
	3	-2	-24	678	463	1138	-1.64	-0.68	1.0000 
	2	3	24	676	563	1189	-1.84	0.52	1.0000 
	3	2	24	564	468	1033	-1.82	0.55	1.0000 
	3	-2	24	899	286	1423	-1.66	0.61	1.0000 
	-3	-2	24	1146	402	1779	-1.83	0.31	1.0000 
	-2	-3	24	1248	455	1898	-1.81	0.35	1.0000 
	-2	3	24	667	350	1120	-1.64	0.63	1.0000 
	-2	-3	-24	26	435	13	-1.84	-0.52	1.0000 
	-2	3	-24	322	193	661	-1.67	-0.64	1.0000 
	-3	-2	-24	500	454	945	-1.82	-0.55	1.0000 
	3	2	-24	392	387	791	-1.83	-0.31	1.0000 
	2	-3	-24	537	574	949	-1.64	-0.63	1.0000 
	3	-2	-24	687	558	1150	-1.64	-0.68	1.0000 
	2	3	-24	520	335	963	-1.81	-0.35	1.0000 
	-2	-3	24	1967	527	2767	-1.81	0.35	1.0000 
	-3	-2	24	1183	433	1825	-1.83	0.31	1.0000 
	3	2	-24	5926	1459	7278	-1.83	-0.31	1.0000 
	-2	3	25	58977	8752	57481	-0.6	-2.46	1.0000 
	-3	2	25	37786	10864	36606	-0.58	-2.38	1.0000 
	-3	-2	25	60486	8448	54018	3.07	1.33	1.0000 
	-2	-3	25	56579	8403	50296	3.08	1.3	1.0000 
	-3	2	-25	49793	10656	48391	-0.61	2.37	1.0000 
	-2	3	-25	44607	9671	43320	-0.59	2.29	1.0000 
	-2	-3	-25	48062	11022	42268	3.09	-1.24	1.0000 
	-3	-2	-25	41978	12025	36585	3.08	-1.19	1.0000 
	2	3	-25	57751	11120	51402	3.08	-1.3	1.0000 
	2	-3	-25	48126	10960	46764	-0.6	2.46	1.0000 
	3	2	-25	56682	11871	50425	3.07	-1.33	1.0000 
	3	-2	-25	45758	10610	44470	-0.58	2.38	1.0000 
	3	-2	25	48615	9075	47228	-0.61	-2.37	1.0000 
	2	3	25	47543	11804	41781	3.09	1.24	1.0000 
	2	-3	25	44503	8557	43217	-0.59	-2.29	1.0000 
	3	2	25	50142	11242	44234	3.08	1.19	1.0000 
	-2	-3	25	64464	9351	57748	3.08	1.3	1.0000 
	-2	3	25	51836	10951	50427	-0.6	-2.46	1.0000 
	-3	2	25	52396	9661	51025	-0.58	-2.38	1.0000 
	-3	-2	25	64337	9497	57662	3.07	1.33	1.0000 
	-2	3	-25	43984	6367	42705	-0.59	2.29	1.0000 
	-3	-2	-25	59831	8358	53364	3.08	-1.19	1.0000 
	-3	2	-25	61240	8655	59696	-0.61	2.37	1.0000 
	-2	-3	-25	68692	8864	61737	3.09	-1.24	1.0000 
	3	2	-25	65429	8574	58696	3.07	-1.33	1.0000 
	2	-3	-25	57138	8139	55664	-0.6	2.46	1.0000 
	3	-2	-25	58145	9053	56706	-0.58	2.38	1.0000 
	2	3	-25	62338	8563	55736	3.08	-1.3	1.0000 
	-2	-3	25	59475	8866	53030	3.08	1.3	1.0000 
	-3	-2	25	42760	6791	37344	3.07	1.33	1.0000 
	-2	3	-25	48915	7560	47571	-0.59	2.29	1.0000 
	-3	2	-25	54936	8628	53468	-0.61	2.37	1.0000 
	-3	-2	-25	48587	6282	42774	3.08	-1.19	1.0000 
	2	-3	-25	57674	8611	56194	-0.6	2.46	1.0000 
	2	3	-25	58343	8098	51961	3.08	-1.3	1.0000 
	3	-2	-25	57643	8882	56210	-0.58	2.38	1.0000 
	3	2	-25	65582	9040	58841	3.07	-1.33	1.0000 
	-2	3	26	973	798	1162	-0.64	0.41	1.0000 
	-2	-3	26	1592	603	978	1.91	-0.02	1.0000 
	-3	-2	26	2032	735	1336	1.89	-0.06	1.0000 
	-3	2	-26	2101	527	2388	-0.66	-0.42	1.0000 
	-2	3	-26	1771	486	2051	-0.7	-0.43	1.0000 
	-2	-3	-26	3141	835	2270	1.86	0.02	1.0000 
	3	-2	-26	2094	650	2384	-0.67	-0.43	1.0000 
	2	-3	-26	1948	635	2213	-0.64	-0.41	1.0000 
	2	3	-26	2880	578	2028	1.91	0.02	1.0000 
	3	2	-26	3189	723	2299	1.89	0.06	1.0000 
	3	-2	26	1979	627	2258	-0.66	0.42	1.0000 
	2	-3	26	1983	505	2279	-0.7	0.43	1.0000 
	2	3	26	3189	719	2311	1.86	-0.02	1.0000 
	-2	3	26	2229	648	2512	-0.64	0.41	1.0000 
	-2	-3	26	4228	918	3180	1.91	-0.02	1.0000 
	-3	-2	26	3652	542	2695	1.89	-0.06	1.0000 
	-2	3	-26	1378	457	1626	-0.7	-0.43	1.0000 
	-2	-3	-26	3698	774	2747	1.86	0.02	1.0000 
	-3	-2	-26	3428	720	2496	1.9	-0.03	1.0000 
	-3	2	-26	2524	895	2838	-0.66	-0.42	1.0000 
	2	3	-26	4487	968	3405	1.91	0.02	1.0000 
	2	-3	-26	3099	643	3432	-0.64	-0.41	1.0000 
	3	2	-26	4520	673	3447	1.89	0.06	1.0000 
	3	-2	-26	2855	667	3193	-0.67	-0.43	1.0000 
	-2	-3	26	4350	891	3286	1.91	-0.02	1.0000 
	-3	-2	26	3107	473	2230	1.89	-0.06	1.0000 
	-2	3	-26	2124	429	2430	-0.7	-0.43	1.0000 
	-3	2	-26	2545	838	2861	-0.66	-0.42	1.0000 
	-3	-2	-26	4543	693	3459	1.9	-0.03	1.0000 
	-2	-3	-26	4308	955	3276	1.86	0.02	1.0000 
	2	3	-26	4088	575	3059	1.91	0.02	1.0000 
	3	2	-26	1920	679	1246	1.89	0.06	1.0000 
	2	-3	-26	2988	560	3315	-0.64	-0.41	1.0000 
	3	-2	-26	3186	650	3543	-0.67	-0.43	1.0000 
	-3	-2	-27	51099	2132	53864	1.37	0.71	1.0000 
	-3	2	-27	54242	3959	48315	2.91	-0.1	1.0000 
	-2	-3	-27	45885	4939	48482	1.35	0.66	1.0000 
	-2	3	-27	57908	2104	51786	2.9	-0.18	1.0000 
	2	-3	-27	57864	2489	51711	2.92	-0.14	1.0000 
	2	3	-27	42403	5955	44954	1.38	0.69	1.0000 
	3	2	-27	47192	5843	49835	1.36	0.64	1.0000 
	3	-2	-27	57961	2694	51806	2.92	-0.2	1.0000 
	-2	-3	27	41985	4329	44523	1.38	-0.69	1.0000 
	-3	-2	-27	53599	2818	56431	1.37	0.71	1.0000 
	-2	3	-27	44435	4424	39093	2.9	-0.18	1.0000 
	-3	2	-27	41421	4381	36263	2.91	-0.1	1.0000 
	-2	-3	-27	51786	3015	54544	1.35	0.66	1.0000 
	3	-2	-27	57943	2756	51789	2.92	-0.2	1.0000 
	2	3	-27	44571	4286	47185	1.38	0.69	1.0000 
	2	-3	-27	58190	2724	52019	2.92	-0.14	1.0000 
	-3	-2	-28	1931	498	1375	-1.77	1.5	1.0000 
	-3	2	-28	2065	415	1354	-2.5	2.21	1.0000 
	-2	3	-28	1738	424	1082	-2.55	2.31	1.0000 
	-2	-3	-28	2373	605	1741	-1.8	1.45	1.0000 
	2	-3	-28	2614	530	1828	-2.51	2.23	1.0000 
	2	3	-28	2135	453	1561	-1.76	1.58	1.0000 
	3	2	-28	2323	507	1710	-1.79	1.54	1.0000 
	3	-2	-28	2355	526	1609	-2.55	2.32	1.0000 
	-2	-3	28	1992	413	1436	-1.76	-1.58	1.0000 
	-3	-2	28	1255	233	800	-1.79	-1.54	1.0000 
	-3	2	-28	2286	442	1542	-2.5	2.21	1.0000 
	-3	-2	-28	1668	409	1150	-1.77	1.5	1.0000 
	-2	-3	-28	1805	395	1252	-1.8	1.45	1.0000 
	-2	3	-28	1325	220	741	-2.55	2.31	1.0000 
	3	2	-28	2041	465	1465	-1.79	1.54	1.0000 
	2	-3	-28	2531	498	1756	-2.51	2.23	1.0000 
	3	-2	-28	2525	501	1757	-2.55	2.32	1.0000 
	2	3	-28	1656	329	1147	-1.76	1.58	1.0000 
	-3	2	-29	14923	3803	17881	2.55	-0.17	1.0000 
	-2	-3	-29	20515	2670	22664	-1.63	0.37	1.0000 
	-3	-2	-29	19897	3114	22044	-1.65	0.36	1.0000 
	3	-2	-29	17416	4347	20669	2.6	-0.25	1.0000 
	3	2	-29	20706	3782	22837	-1.61	0.35	1.0000 
	2	-3	-29	18339	3887	21656	2.59	-0.26	1.0000 
	2	3	-29	22832	3516	25087	-1.63	0.36	1.0000 
	-2	-3	29	16365	3416	18282	-1.63	-0.36	1.0000 
	-2	3	-29	15896	3621	18985	2.59	-0.14	1.0000 
	-3	2	-29	19687	4009	23064	2.55	-0.17	1.0000 
	-2	-3	-29	24766	3325	27123	-1.63	0.37	1.0000 
	-3	-2	-29	24546	4789	26926	-1.65	0.36	1.0000 
	2	3	-29	20995	2584	23159	-1.63	0.36	1.0000 
	2	-3	-29	23779	4677	27537	2.59	-0.26	1.0000 
	3	-2	-29	22159	2828	25811	2.6	-0.25	1.0000 
	-2	-3	-30	486	206	520	-0.17	0.09	1.0000 
	-3	-2	-30	448	169	478	-0.16	0.08	1.0000 
	-2	3	-30	371	144	227	1.01	1.2	1.0000 
	-3	2	-30	476	175	312	1.01	1.13	1.0000 
	3	-2	-30	809	258	606	1	1.17	1.0000 
	3	2	-30	672	248	706	-0.15	0.16	1.0000 
	2	-3	-30	1075	304	838	1	1.1	1.0000 
	2	3	-30	468	180	495	-0.14	0.13	1.0000 
	-2	-3	30	635	224	667	-0.14	-0.13	1.0000 
	-3	-2	-30	438	280	468	-0.16	0.08	1.0000 
	-3	2	-30	770	207	566	1.01	1.13	1.0000 
	-2	3	-30	642	214	458	1.01	1.2	1.0000 
	-2	-3	-30	663	274	703	-0.17	0.09	1.0000 
	2	-3	-30	585	186	406	1	1.1	1.0000 
	2	3	-30	410	162	435	-0.14	0.13	1.0000 
	3	-2	-30	832	223	626	1	1.17	1.0000 
	-2	3	-31	1	79	60	-1.87	0.4	1.0000 
	-2	-3	-31	180	192	221	0.23	-1.19	1.0000 
	-3	-2	-31	268	177	319	0.2	-1.16	1.0000 
	-3	2	-31	155	166	447	-1.89	0.43	1.0000 
	3	2	-31	334	170	398	0.24	-1.14	1.0000 
	2	-3	-31	126	229	394	-1.88	0.42	1.0000 
	3	-2	-31	39	268	217	-1.86	0.39	1.0000 
	2	3	-31	238	155	285	0.22	-1.11	1.0000 
	-2	-3	-31	266	185	321	0.23	-1.19	1.0000 
	-3	2	-31	47	165	240	-1.89	0.43	1.0000 
	-2	3	-31	66	144	279	-1.87	0.4	1.0000 
	-3	-2	-31	431	234	502	0.2	-1.16	1.0000 
	2	3	-31	26	215	-6	0.22	-1.11	1.0000 
	2	-3	-31	120	219	384	-1.88	0.42	1.0000 
	3	-2	-31	272	278	627	-1.86	0.39	1.0000 
	-3	2	-32	53	119	61	0.12	0	1.0000 
	-3	-2	-32	51	255	-36	-1.4	0.76	1.0000 
	-2	3	-32	0	155	-58	0.12	-0.06	1.0000 
	-2	-3	-32	51	122	-12	-1.39	0.76	1.0000 
	3	2	-32	210	204	233	-1.4	0.83	1.0000 
	2	3	-32	51	74	1	-1.42	0.84	1.0000 
	3	-2	-32	108	141	116	0.09	-0.04	1.0000 
	2	-3	-32	0	255	-4	0.09	0.01	1.0000 
	-3	2	-32	107	104	118	0.12	0	1.0000 
	-2	-3	-32	51	174	-3	-1.39	0.76	1.0000 
	-3	-2	-32	51	288	-3	-1.4	0.76	1.0000 
	-2	3	-32	61	94	69	0.12	-0.06	1.0000 
	2	3	-32	129	93	137	-1.42	0.84	1.0000 
	2	-3	-32	108	120	117	0.09	0.01	1.0000 
	3	-2	-32	206	183	217	0.09	-0.04	1.0000 
	-2	3	-33	2445	958	2948	-1	0.75	1.0000 
	-3	2	-33	2765	1006	3303	-1	0.78	1.0000 
	-2	-3	-33	3140	1044	3408	0.53	-0.31	1.0000 
	-3	-2	-33	2580	1017	2832	0.55	-0.27	1.0000 
	3	2	-33	3771	1136	4067	0.54	-0.28	1.0000 
	2	3	-33	3161	1004	3446	0.56	-0.23	1.0000 
	3	-2	-33	3294	1182	3870	-0.98	0.79	1.0000 
	2	-3	-33	3176	1136	3752	-1	0.82	1.0000 
	-3	-2	-33	3280	1015	3563	0.55	-0.27	1.0000 
	-2	-3	-33	3104	980	3371	0.53	-0.31	1.0000 
	-2	3	-33	1508	837	1906	-1	0.75	1.0000 
	-3	2	-33	2203	807	2685	-1	0.78	1.0000 
	2	-3	-33	2808	970	3350	-1	0.82	1.0000 
	3	-2	-33	2845	952	3381	-0.98	0.79	1.0000 
	2	3	-33	2279	746	2522	0.56	-0.23	1.0000 
	-2	3	-34	775	372	792	-0.06	-0.25	1.0000 
	-3	-2	-34	862	347	744	0.5	0.78	1.0000 
	-3	2	-34	601	290	614	-0.05	-0.25	1.0000 
	2	3	-34	1132	455	1002	0.48	0.75	1.0000 
	-2	-3	-34	1047	421	916	0.5	0.76	1.0000 
	3	-2	-34	1240	578	1266	-0.07	-0.23	1.0000 
	3	2	-34	1171	453	1036	0.49	0.75	1.0000 
	2	-3	-34	997	473	1017	-0.06	-0.24	1.0000 
	-3	2	-34	601	297	614	-0.05	-0.25	1.0000 
	-2	-3	-34	1236	499	1094	0.5	0.76	1.0000 
	-2	3	-34	541	263	555	-0.06	-0.25	1.0000 
	-3	-2	-34	934	371	812	0.5	0.78	1.0000 
	2	-3	-34	1276	585	1299	-0.06	-0.24	1.0000 
	3	2	-34	1558	647	1403	0.49	0.75	1.0000 
	2	3	-34	807	325	696	0.48	0.75	1.0000 
	3	-2	-34	1045	502	1068	-0.07	-0.23	1.0000 
	-3	2	-35	14236	5652	17750	3.08	-0.17	1.0000 
	2	3	-35	29759	7424	25875	2.56	0.44	1.0000 
	-2	-3	-35	39494	9712	34981	2.58	0.41	1.0000 
	2	-3	-35	31803	10641	36973	3.08	-0.19	1.0000 
	3	-2	-35	33801	11158	39106	3.08	-0.08	1.0000 
	3	2	-35	45188	11630	40365	2.57	0.39	1.0000 
	-3	-2	-35	37389	9116	33004	2.57	0.45	1.0000 
	-2	-3	-35	39970	9877	35429	2.58	0.41	1.0000 
	-3	2	-35	20562	7369	24746	3.08	-0.17	1.0000 
	-2	3	-35	13939	5462	17397	3.06	-0.07	1.0000 
	2	3	-35	29126	6944	25285	2.56	0.44	1.0000 
	2	-3	-35	30118	9527	35154	3.08	-0.19	1.0000 
	3	-2	-35	32667	10384	37886	3.08	-0.08	1.0000 
	-2	-3	-36	645	358	640	-0.04	0.42	1.0000 
	-2	3	-36	501	225	486	-0.08	0.21	1.0000 
	-3	2	-36	457	227	443	-0.08	0.19	1.0000 
	-3	-2	-36	421	239	419	-0.02	0.39	1.0000 
	2	3	-36	754	356	748	-0.04	0.37	1.0000 
	2	-3	-36	740	355	718	-0.09	0.16	1.0000 
	3	-2	-36	944	401	920	-0.09	0.16	1.0000 
	3	2	-36	1312	420	1300	-0.06	0.39	1.0000 
	-2	3	-36	643	325	626	-0.08	0.21	1.0000 
	-2	-3	-36	1619	521	1613	-0.04	0.42	1.0000 
	-3	-2	-36	1502	518	1501	-0.02	0.39	1.0000 
	3	-2	-36	2709	861	2668	-0.09	0.16	1.0000 
	2	-3	-36	2568	827	2528	-0.09	0.16	1.0000 
	2	3	-36	1078	330	1071	-0.04	0.37	1.0000 
	3	2	-36	1222	373	1210	-0.06	0.39	1.0000 
	-2	-3	-37	39948	11558	43357	1.88	0.63	1.0000 
	-3	2	-37	38780	10141	34611	2.41	0.1	1.0000 
	-3	-2	-37	36595	10642	39858	1.88	0.63	1.0000 
	3	2	-37	58671	30874	62756	1.86	0.66	1.0000 
	2	-3	-37	69841	31633	64153	2.43	0.09	1.0000 
	2	3	-37	48530	14080	52253	1.87	0.66	1.0000 
	3	-2	-37	70039	31693	64345	2.43	0.15	1.0000 
	-2	-3	-37	49266	14499	53046	1.88	0.63	1.0000 
	-3	-2	-37	48352	14190	52094	1.88	0.63	1.0000 
	2	3	-37	31976	9783	35009	1.87	0.66	1.0000 
	3	2	-37	50551	14717	54347	1.86	0.66	1.0000 
	3	-2	-37	65874	29539	60356	2.43	0.15	1.0000 
	2	-3	-37	66159	29643	60627	2.43	0.09	1.0000 
	-3	-3	0	52048	3312	99102	19.19	-0.22	1.0000 
	-3	-3	0	51446	3252	98271	19.19	-0.22	1.0000 
	3	3	0	55082	3101	103272	19.19	0.22	1.0000 
	-3	-3	1	164228	3561	119721	-13.19	2.78	1.0000 
	-3	-3	1	161559	3481	117442	-13.19	2.78	1.0000 
	-3	-3	-1	159806	3462	116030	-13.18	-3.23	1.0000 
	3	3	1	161592	3491	117554	-13.18	3.23	1.0000 
	-3	-3	1	157437	3404	113929	-13.19	2.78	1.0000 
	-3	-3	-2	12887	1391	33414	-14.98	3.72	1.0000 
	3	3	2	13380	1437	34207	-14.98	-3.72	1.0000 
	-3	-3	-3	352300	6059	220845	27.35	-1.56	1.0000 
	3	3	3	351152	5949	219936	27.35	1.56	1.0000 
	-3	3	-4	7623	1284	13530	6.36	1.86	1.0000 
	-3	-3	-4	13099	1734	16391	2.92	1.78	1.0000 
	3	3	4	13901	974	17288	2.92	-1.78	1.0000 
	-3	3	-5	416207	11140	363217	9.46	1.76	1.0000 
	-3	-3	-5	447949	11431	369335	-13.62	-0.48	1.0000 
	3	-3	5	417706	11067	364618	9.46	-1.76	1.0000 
	3	3	5	445182	11274	366823	-13.62	0.48	1.0000 
	-3	3	-6	15213	1041	18426	-2.73	0.58	1.0000 
	3	-3	6	15013	1756	18206	-2.73	-0.58	1.0000 
	3	3	6	16832	1116	19894	-2.11	-3.82	1.0000 
	-3	3	-7	412621	14302	440566	4.76	0.67	1.0000 
	-3	-3	-7	447590	14661	448234	-0.14	1.75	1.0000 
	3	-3	7	403785	13065	431434	4.76	-0.67	1.0000 
	3	3	7	435408	13369	436042	-0.14	-1.75	1.0000 
	-3	3	-8	52961	1434	29069	-13.29	-2.13	1.0000 
	3	3	8	47709	1417	27680	-11.53	0.09	1.0000 
	-3	3	9	120440	5058	147113	-8.01	-1.44	1.0000 
	-3	-3	-9	123442	5054	144411	6.33	0.52	1.0000 
	-3	3	-9	127930	5264	155342	-8	1.38	1.0000 
	3	3	9	121350	4893	142148	6.33	-0.52	1.0000 
	-3	3	9	120157	5086	146800	-8.01	-1.44	1.0000 
	-3	3	-10	2388	1182	1751	2.49	-2.75	1.0000 
	-3	-3	-10	164	1645	128	0.08	-1.96	1.0000 
	-3	3	11	111357	5485	127524	5.26	-2.97	1.0000 
	-3	-3	-11	123765	5189	134311	-3.26	0.21	1.0000 
	-3	3	-11	116158	5721	132741	5.28	2.76	1.0000 
	3	3	11	122109	5018	132586	-3.26	-0.21	1.0000 
	-3	3	11	112262	4867	128493	5.26	-2.97	1.0000 
	-3	3	-12	395	1141	102	2.16	2.85	1.0000 
	-3	-3	-12	2020	803	1138	2.54	0.44	1.0000 
	3	-3	12	7052	1255	6531	2.16	-2.85	1.0000 
	3	3	12	1963	1114	1095	2.54	-0.44	1.0000 
	-3	3	13	67582	3100	64924	1.2	-1.15	1.0000 
	-3	3	-13	63551	2765	61020	1.18	1.1	1.0000 
	-3	-3	-13	66255	3140	60203	-2.7	0.78	1.0000 
	3	-3	13	57657	3613	55247	1.18	-1.1	1.0000 
	3	3	13	69175	3920	62988	-2.7	-0.78	1.0000 
	-3	3	14	10381	2944	7721	-3.11	0.18	1.0000 
	-3	-3	14	12952	2359	8470	-4.82	-0.59	1.0000 
	-3	3	-14	9430	2511	6853	-3.17	0.05	1.0000 
	-3	-3	-14	9693	3027	5908	-4.78	0.38	1.0000 
	3	-3	14	10629	954	7881	-3.17	-0.05	1.0000 
	3	3	14	12114	3077	7828	-4.78	-0.38	1.0000 
	-3	3	14	10623	996	7930	-3.11	0.18	1.0000 
	-3	-3	14	12889	1010	8419	-4.82	-0.59	1.0000 
	-3	3	15	11178	1080	7843	-3.8	-0.02	1.0000 
	-3	-3	15	10878	915	7755	3.6	0.21	1.0000 
	-3	3	-15	8583	1932	5711	-3.78	0.25	1.0000 
	-3	-3	-15	8295	1949	5614	3.58	-0.14	1.0000 
	3	3	15	10871	2237	7764	3.58	0.14	1.0000 
	3	-3	15	8868	1894	5944	-3.78	-0.25	1.0000 
	-3	-3	15	10630	2591	7546	3.6	0.21	1.0000 
	-3	3	15	9788	3011	6686	-3.8	-0.02	1.0000 
	-3	3	16	30334	2050	36633	-3.81	1.08	1.0000 
	-3	-3	16	28188	2272	34714	-4.06	1.75	1.0000 
	-3	3	-16	28178	1984	34356	-3.87	-1.15	1.0000 
	-3	-3	-16	26775	2474	33064	-4.01	-1.86	1.0000 
	3	3	16	28799	2797	35311	-4.01	1.86	1.0000 
	3	-3	16	28675	3859	34905	-3.87	1.15	1.0000 
	-3	3	16	28908	2010	35064	-3.81	1.08	1.0000 
	-3	-3	16	28063	2404	34575	-4.06	1.75	1.0000 
	-3	3	17	57888	5340	58016	0.01	1.37	1.0000 
	-3	-3	17	56341	4606	57130	-0.37	-0.25	1.0000 
	-3	3	-17	56993	4093	57163	0.04	-1.18	1.0000 
	-3	-3	-17	54547	5557	55270	-0.35	0.18	1.0000 
	3	3	17	59716	3631	60473	-0.35	-0.18	1.0000 
	3	-3	17	56637	5060	56806	0.04	1.18	1.0000 
	-3	3	17	57042	5205	57169	0.01	1.37	1.0000 
	-3	-3	17	58278	4473	59080	-0.37	-0.25	1.0000 
	-3	3	18	11927	1633	13677	1.67	1	1.0000 
	-3	-3	18	10551	1357	15569	4.88	-0.07	1.0000 
	-3	3	-18	10439	3031	12084	1.66	-1.2	1.0000 
	-3	-3	-18	6148	2273	10098	4.89	-0.01	1.0000 
	3	-3	-18	10782	1234	12448	1.67	-1	1.0000 
	3	3	18	7915	3235	12330	4.89	0.01	1.0000 
	3	-3	18	8951	2123	10477	1.66	1.2	1.0000 
	-3	-3	18	10682	3630	15728	4.88	-0.07	1.0000 
	-3	3	19	149395	9042	152020	-0.75	0.2	1.0000 
	-3	-3	19	170231	8715	168488	-0.45	0.62	1.0000 
	-3	3	-19	162687	9077	165436	-0.75	-0.1	1.0000 
	-3	-3	-19	169579	8704	167856	-0.45	-0.76	1.0000 
	3	-3	-19	156330	9824	159015	-0.75	-0.2	1.0000 
	3	3	-19	171320	11194	169571	-0.45	-0.62	1.0000 
	3	-3	19	164969	8659	167737	-0.75	0.1	1.0000 
	3	3	19	172122	8756	170386	-0.45	0.76	1.0000 
	-3	-3	19	174355	8775	172591	-0.45	0.62	1.0000 
	-3	3	19	151448	9309	154091	-0.75	0.2	1.0000 
	-3	-3	20	3201	2129	4797	-2.72	-1.16	1.0000 
	-3	3	20	4173	1298	5371	-1.92	-0.2	1.0000 
	-3	3	-20	2780	1113	3772	-1.93	-0.05	1.0000 
	-3	-3	-20	1076	1262	2062	-2.73	1.09	1.0000 
	3	-3	-20	3154	1553	4205	-1.92	0.2	1.0000 
	3	-3	20	3355	1283	4437	-1.93	0.05	1.0000 
	3	3	20	1859	1085	3110	-2.73	-1.09	1.0000 
	-3	3	20	3706	1096	4839	-1.92	-0.2	1.0000 
	-3	3	21	225665	26018	243614	4.06	1.21	1.0000 
	-3	-3	21	239654	25608	239856	-0.01	1.01	1.0000 
	-3	3	-21	225182	26082	242985	4.03	-1.24	1.0000 
	-3	-3	-21	243404	26190	243519	0.01	-1.06	1.0000 
	3	3	-21	253584	25186	253793	-0.01	-1.01	1.0000 
	3	-3	-21	235666	23313	254001	4.06	-1.21	1.0000 
	3	3	21	246482	26475	246598	0.01	1.06	1.0000 
	3	-3	21	218707	28568	236257	4.03	1.24	1.0000 
	-3	3	21	208285	25252	225541	4.06	1.21	1.0000 
	-3	-3	21	246909	22630	247115	-0.01	1.01	1.0000 
	-3	-3	-21	229846	24062	229957	0.01	-1.06	1.0000 
	-3	-3	22	232	991	1292	-2.03	-4.21	1.0000 
	-3	3	22	451	1079	1923	-4.37	-2.48	1.0000 
	-3	3	-22	51	407	853	-4.35	2.3	1.0000 
	-3	-3	-22	132	897	1094	-1.86	4.51	1.0000 
	3	-3	-22	683	1229	2377	-4.37	2.48	1.0000 
	3	3	-22	1058	1611	2848	-2.03	4.21	1.0000 
	3	3	22	362	1024	1658	-1.86	-4.51	1.0000 
	3	-3	22	222	461	1371	-4.35	-2.3	1.0000 
	-3	3	22	1091	989	3098	-4.37	-2.48	1.0000 
	-3	-3	-22	495	1862	1933	-1.86	4.51	1.0000 
	3	3	-22	563	584	1983	-2.03	4.21	1.0000 
	3	-3	-22	419	816	1855	-4.37	2.48	1.0000 
	-3	-3	22	547	557	1952	-2.03	-4.21	1.0000 
	-3	-3	-22	861	685	2611	-1.86	4.51	1.0000 
	3	-3	-22	488	679	1997	-4.37	2.48	1.0000 
	-3	-3	23	206222	21357	223801	4.18	0.56	1.0000 
	-3	3	23	291827	40303	283932	1.64	0.41	1.0000 
	-3	3	-23	264723	36488	257233	1.64	-0.39	1.0000 
	-3	-3	-23	264679	40525	284627	4.2	-0.55	1.0000 
	3	-3	-23	312511	43159	304339	1.64	-0.41	1.0000 
	3	3	-23	268825	42294	288845	4.18	-0.56	1.0000 
	3	3	23	269611	41187	289741	4.2	0.55	1.0000 
	3	-3	23	272256	38616	264660	1.64	0.39	1.0000 
	-3	-3	23	244840	38476	263963	4.18	0.56	1.0000 
	-3	3	23	269789	38520	262200	1.64	0.41	1.0000 
	-3	-3	-23	245952	37522	265194	4.2	-0.55	1.0000 
	-3	3	-23	268273	36684	260733	1.64	-0.39	1.0000 
	3	-3	-23	198653	17210	192148	1.64	-0.41	1.0000 
	3	3	-23	239119	36255	258021	4.18	-0.56	1.0000 
	-3	-3	23	228199	22016	246673	4.18	0.56	1.0000 
	-3	-3	-23	229358	22404	247952	4.2	-0.55	1.0000 
	-3	3	-23	239505	20848	232383	1.64	-0.39	1.0000 
	3	3	-23	237311	25437	256143	4.18	-0.56	1.0000 
	3	-3	-23	247230	21462	239967	1.64	-0.41	1.0000 
	-3	-3	24	3570	2279	3585	0.07	-1.82	1.0000 
	-3	3	24	3414	2692	5465	-3.42	0.54	1.0000 
	-3	3	-24	4448	1818	6720	-3.37	-0.65	1.0000 
	-3	-3	-24	6034	1928	6066	0.11	2.08	1.0000 
	3	3	-24	10346	2187	10420	0.07	1.82	1.0000 
	3	-3	-24	6267	2087	8962	-3.42	-0.54	1.0000 
	3	-3	24	4474	1842	6753	-3.37	0.65	1.0000 
	3	3	24	5982	2068	6013	0.11	-2.08	1.0000 
	-3	3	24	5485	2477	8021	-3.42	0.54	1.0000 
	-3	-3	24	10219	2055	10292	0.07	-1.82	1.0000 
	-3	-3	-24	6491	2173	6527	0.11	2.08	1.0000 
	-3	3	-24	3676	1650	5763	-3.37	-0.65	1.0000 
	3	-3	-24	4278	1561	6546	-3.42	-0.54	1.0000 
	3	3	-24	4818	992	4847	0.07	1.82	1.0000 
	-3	-3	24	6743	1496	6789	0.07	-1.82	1.0000 
	-3	3	-24	4537	1286	6830	-3.37	-0.65	1.0000 
	-3	-3	-24	6965	1296	7006	0.11	2.08	1.0000 
	3	-3	-24	4373	1174	6663	-3.42	-0.54	1.0000 
	-3	3	25	73115	12595	76686	1.45	-0.07	1.0000 
	-3	-3	25	77990	12373	70654	2.99	0.14	1.0000 
	-3	3	-25	40729	11794	43389	1.45	0.22	1.0000 
	-3	-3	-25	87565	13001	79840	2.97	-0.19	1.0000 
	3	3	-25	78427	15266	71070	2.99	-0.14	1.0000 
	3	-3	-25	61881	14270	65170	1.45	0.07	1.0000 
	3	-3	25	64536	12602	67874	1.45	-0.22	1.0000 
	3	3	25	88734	13267	80956	2.97	0.19	1.0000 
	-3	3	25	62120	13999	65415	1.45	-0.07	1.0000 
	-3	-3	25	82036	12708	74507	2.99	0.14	1.0000 
	-3	3	-25	45746	7305	48563	1.45	0.22	1.0000 
	-3	-3	-25	95080	12873	87023	2.97	-0.19	1.0000 
	3	3	-25	102052	13695	93634	2.99	-0.14	1.0000 
	3	-3	-25	86743	13155	90629	1.45	0.07	1.0000 
	-3	-3	25	81204	11457	73714	2.99	0.14	1.0000 
	-3	-3	-25	103369	15336	94960	2.97	-0.19	1.0000 
	-3	3	-25	59351	11017	62554	1.45	0.22	1.0000 
	3	3	-25	85887	11725	78179	2.99	-0.14	1.0000 
	3	-3	-25	82553	13807	86345	1.45	0.07	1.0000 
	-3	3	-26	929	625	1427	-1.61	-1.11	1.0000 
	-3	-3	-26	2177	1144	2894	-1.55	-1.06	1.0000 
	3	3	-26	2673	997	3458	-1.56	-0.79	1.0000 
	3	-3	-26	2941	1171	3826	-1.65	-1.05	1.0000 
	-3	-3	26	1988	946	2671	-1.56	0.79	1.0000 
	-3	-3	-26	2036	847	2731	-1.55	-1.06	1.0000 
	-3	3	-26	1466	601	2085	-1.61	-1.11	1.0000 
	3	3	-26	2117	770	2820	-1.56	-0.79	1.0000 
	3	-3	-26	3117	1120	4026	-1.65	-1.05	1.0000 
	-3	-3	-27	84523	14390	93085	3.21	1.04	1.0000 
	3	-3	-27	97509	15418	91976	2	-0.36	1.0000 
	3	3	-27	90767	15247	99679	3.23	1.12	1.0000 
	-3	-3	27	63936	11649	71445	3.23	-1.12	1.0000 
	-3	3	-27	80010	12510	74998	2.01	-0.33	1.0000 
	-3	-3	-27	86394	15135	95048	3.21	1.04	1.0000 
	3	3	-27	79694	14492	88056	3.23	1.12	1.0000 
	3	-3	-27	107967	28299	102140	2	-0.36	1.0000 
	-3	3	-28	1699	552	1633	-0.75	-2.64	1.0000 
	-3	-3	-28	1278	741	1959	1.85	-0.59	1.0000 
	3	-3	-28	2964	896	2949	-0.73	-2.7	1.0000 
	3	3	-28	2383	965	3258	1.81	-0.38	1.0000 
	-3	-3	28	1616	731	2348	1.81	0.38	1.0000 
	-3	-3	-28	2931	1317	3927	1.85	-0.59	1.0000 
	-3	3	-28	3608	1073	3584	-0.75	-2.64	1.0000 
	3	-3	-28	4854	1599	4880	-0.73	-2.7	1.0000 
	3	3	-28	1698	998	2447	1.81	-0.38	1.0000 
	-3	3	-29	29026	3290	30252	0.78	-0.3	1.0000 
	3	-3	-29	49807	5542	51347	0.75	-0.17	1.0000 
	3	3	-29	56740	5981	53822	1.36	1.19	1.0000 
	-3	-3	29	35521	3953	33214	1.36	-1.19	1.0000 
	-3	3	-29	34554	4931	35891	0.78	-0.3	1.0000 
	-3	-3	-29	56553	6630	53708	1.32	1.2	1.0000 
	3	-3	-29	45795	5853	47272	0.75	-0.17	1.0000 
	3	3	-29	47848	5504	45169	1.36	1.19	1.0000 
	-3	3	-30	136	189	459	-2.13	-1.54	1.0000 
	-3	-3	-30	786	297	588	0.84	0.02	1.0000 
	3	-3	-30	550	405	1142	-2.12	-1.61	1.0000 
	3	3	-30	1102	313	883	0.79	0.15	1.0000 
	-3	-3	30	777	210	595	0.79	-0.15	1.0000 
	-3	3	-30	480	373	1037	-2.13	-1.54	1.0000 
	-3	-3	-30	1734	506	1432	0.84	0.02	1.0000 
	3	-3	-30	1115	616	1928	-2.12	-1.61	1.0000 
	3	3	-30	1533	446	1272	0.79	0.15	1.0000 
	-3	3	-31	4566	1442	3893	1.16	0.44	1.0000 
	-3	-3	-31	3051	1237	3315	0.51	0.24	1.0000 
	3	3	-31	4170	1230	4487	0.53	0.2	1.0000 
	3	-3	-31	5042	1167	4341	1.16	0.52	1.0000 
	-3	-3	-31	3790	1070	4084	0.51	0.24	1.0000 
	-3	3	-31	3000	808	2459	1.16	0.44	1.0000 
	3	3	-31	3450	1161	3739	0.53	0.2	1.0000 
	3	-3	-31	5256	1195	4540	1.16	0.52	1.0000 
	-3	3	-32	80	71	64	-0.24	-0.31	1.0000 
	-3	-3	-32	73	102	150	0.77	-0.46	1.0000 
	3	-3	-32	300	164	270	-0.25	-0.3	1.0000 
	3	3	-32	18	174	-2	0.75	-0.58	1.0000 
	-3	-3	-32	81	208	161	0.77	-0.46	1.0000 
	-3	3	-32	217	126	192	-0.24	-0.31	1.0000 
	3	3	-32	12	164	46	0.75	-0.58	1.0000 
	3	-3	-32	251	173	223	-0.25	-0.3	1.0000 
	-3	-3	-33	478	420	835	1.58	0.03	1.0000 
	-3	3	-33	843	155	307	2.51	0.63	1.0000 
	3	-3	-33	1655	373	843	2.54	0.6	1.0000 
	3	3	-33	484	386	843	1.59	0.08	1.0000 
	-3	-3	-33	276	264	559	1.58	0.03	1.0000 
	-3	3	-33	797	147	279	2.51	0.63	1.0000 
	3	3	-33	139	240	354	1.59	0.08	1.0000 
	3	-3	-33	1362	326	638	2.54	0.6	1.0000 
	-3	-3	-34	335	160	234	0.66	-0.09	1.0000 
	-3	3	-34	410	121	156	1.78	0.29	1.0000 
	3	3	-34	453	171	336	0.65	-0.15	1.0000 
	3	-3	-34	519	185	233	1.75	0.33	1.0000 
	-3	-3	-34	482	182	359	0.66	-0.09	1.0000 
	3	-3	-34	337	146	116	1.75	0.33	1.0000 
	3	3	-34	707	273	559	0.65	-0.15	1.0000 
	-3	-3	-35	34936	10191	36782	-1.06	0.4	1.0000 
	-3	3	-35	8773	3229	9028	0.36	-1.33	1.0000 
	3	-3	-35	42274	11810	42936	0.39	-1.28	1.0000 
	3	3	-35	32791	9966	34620	-1.08	0.44	1.0000 
	-3	-3	-35	33638	9864	35450	-1.06	0.4	1.0000 
	3	-3	-35	40440	11136	41087	0.39	-1.28	1.0000 
	3	3	-35	28439	8416	30144	-1.08	0.44	1.0000 
	-3	-3	-36	2	369	-3	-0.21	-0.27	1.0000 
	-3	3	-36	226	128	265	0.23	-0.53	1.0000 
	3	3	-36	629	263	591	-0.19	-0.25	1.0000 
	3	-3	-36	592	350	653	0.22	-0.47	1.0000 
	-3	-3	-36	323	169	293	-0.21	-0.27	1.0000 
	3	-3	-36	549	290	608	0.22	-0.47	1.0000 
	3	3	-36	366	158	337	-0.19	-0.25	1.0000 
	0	-4	-2	244993	5335	214559	-7.02	0.65	1.0000 
	0	-4	-2	242083	5266	211836	-7.02	0.65	1.0000 
	0	-4	-2	241265	5250	211071	-7.02	0.65	1.0000 
	0	4	2	254046	5529	223036	-7.02	-0.65	1.0000 
	0	-4	-2	247145	5385	216573	-7.02	0.65	1.0000 
	0	-4	-4	37329	1391	43430	-3.32	0.88	1.0000 
	0	4	4	37887	1363	44032	-3.32	-0.88	1.0000 
	-4	0	-6	23833	905	9017	13.15	1.77	1.0000 
	0	4	-6	23516	351	8844	13.14	1.95	1.0000 
	0	4	-6	25001	377	9766	13.14	1.95	1.0000 
	0	-4	-6	24670	586	9529	13.15	1.52	1.0000 
	4	0	6	25333	856	9950	13.15	-1.77	1.0000 
	0	-4	6	25345	365	9982	13.14	-1.95	1.0000 
	0	4	6	26118	787	10438	13.15	-1.52	1.0000 
	-4	0	8	274764	8826	272658	-0.45	-1.16	1.0000 
	0	4	-8	239556	7265	237724	-0.42	1.3	1.0000 
	0	4	-8	291867	8735	289848	-0.42	1.3	1.0000 
	0	-4	-8	279658	8716	277021	-0.55	1.14	1.0000 
	4	0	8	277254	8769	274758	-0.53	-1.29	1.0000 
	0	-4	8	285390	8495	283393	-0.42	-1.3	1.0000 
	0	4	8	292273	9058	289578	-0.55	-1.14	1.0000 
	-4	0	8	280244	8985	278118	-0.45	-1.16	1.0000 
	0	4	-8	283485	8554	281495	-0.42	1.3	1.0000 
	0	4	10	278251	9005	283094	-1.02	2.89	1.0000 
	-4	0	10	287220	9409	291758	-0.95	2.71	1.0000 
	-4	0	-10	283765	9388	288480	-0.99	-2.64	1.0000 
	4	0	10	288072	9405	292824	-0.99	2.64	1.0000 
	0	4	10	289021	9334	293960	-1.02	2.89	1.0000 
	-4	0	10	284748	9333	289266	-0.95	2.71	1.0000 
	-4	0	12	333034	12391	357766	4.6	2.05	1.0000 
	-4	0	-12	291221	10844	314422	4.62	-1.86	1.0000 
	4	0	12	296345	10892	319746	4.62	1.86	1.0000 
	0	-4	12	358616	12465	384319	4.61	2.02	1.0000 
	-4	0	12	332540	12488	357254	4.6	2.05	1.0000 
	-4	0	14	294507	12270	323368	-5.78	1.29	1.0000 
	0	4	-14	305396	11290	334901	-5.81	-1.26	1.0000 
	-4	0	14	284814	11858	313207	-5.78	1.29	1.0000 
	-4	0	16	202876	8219	204937	0.5	0.09	1.0000 
	0	4	-16	208716	6956	210677	0.47	-0.1	1.0000 
	0	-4	16	213396	7224	215379	0.47	0.1	1.0000 
	-4	0	16	191617	7951	193621	0.5	0.09	1.0000 
	-4	0	18	175621	8886	178739	-0.81	-0.36	1.0000 
	-4	0	-18	175726	9359	178800	-0.8	0.36	1.0000 
	0	4	-18	176096	8745	179083	-0.78	0.28	1.0000 
	4	0	18	182068	9528	185197	-0.8	-0.36	1.0000 
	0	-4	18	181044	8834	184073	-0.78	-0.28	1.0000 
	-4	0	18	172360	8742	175449	-0.81	-0.36	1.0000 
	-4	0	20	90777	6840	98637	2.83	-0.11	1.0000 
	-4	0	-20	91894	5785	99827	2.84	-0.05	1.0000 
	0	4	-20	88832	6162	96733	2.88	0.08	1.0000 
	4	0	20	94991	5800	103054	2.84	0.05	1.0000 
	0	-4	20	94341	5246	102479	2.88	-0.08	1.0000 
	-4	0	20	89779	6114	97597	2.83	-0.11	1.0000 
	-4	0	22	29560	6429	26506	2.01	0.75	1.0000 
	-4	0	-22	26014	7442	23133	2.02	-0.77	1.0000 
	0	4	-22	27577	5537	24609	2.02	-0.7	1.0000 
	4	0	22	33816	4134	30521	2.02	0.77	1.0000 
	0	-4	22	27575	5298	24607	2.02	0.7	1.0000 
	-4	0	22	32838	5583	29615	2.01	0.75	1.0000 
	-4	0	-22	27556	3478	24588	2.02	-0.77	1.0000 
	0	-4	-22	29446	2996	26412	2	-0.79	1.0000 
	4	0	-22	27152	3942	24228	2.01	-0.75	1.0000 
	0	-4	22	30166	3881	27058	2.02	0.7	1.0000 
	-4	0	-22	32641	3387	29405	2.02	-0.77	1.0000 
	0	-4	-22	29046	4213	26033	2	-0.79	1.0000 
	-4	0	24	4477	1071	4672	-0.32	0	1.0000 
	-4	0	-24	3976	1370	4161	-0.32	0.02	1.0000 
	0	4	-24	4205	1131	4412	-0.35	-0.05	1.0000 
	4	0	-24	4414	1255	4608	-0.32	0	1.0000 
	4	0	24	4571	1352	4770	-0.32	-0.02	1.0000 
	0	4	24	5719	1338	5926	-0.3	-0.07	1.0000 
	0	-4	24	5505	1069	5742	-0.35	0.05	1.0000 
	-4	0	24	5730	1080	5950	-0.32	0	1.0000 
	-4	0	-24	4061	1361	4248	-0.32	0.02	1.0000 
	4	0	-24	5445	1000	5660	-0.32	0	1.0000 
	0	-4	24	5959	1115	6205	-0.35	0.05	1.0000 
	-4	0	-24	6201	1119	6432	-0.32	0.02	1.0000 
	-4	0	-26	6760	2099	5324	-2.03	0.31	1.0000 
	0	4	-26	4450	1137	3326	-1.99	0.22	1.0000 
	4	0	-26	7325	1808	5837	-2.02	0.25	1.0000 
	0	-4	26	10051	1105	8321	-1.99	-0.22	1.0000 
	-4	0	-26	7888	1763	6330	-2.03	0.31	1.0000 
	0	4	-26	5736	1233	4449	-1.99	0.22	1.0000 
	4	0	-26	8820	690	7179	-2.02	0.25	1.0000 
	0	4	-28	32247	6061	33731	-0.95	-1.1	1.0000 
	-4	0	-28	40034	6546	41745	-0.98	-1.06	1.0000 
	0	-4	-28	38105	6834	39786	-0.99	-1.15	1.0000 
	4	0	-28	37586	6182	39225	-0.97	-1.2	1.0000 
	0	-4	28	35337	5924	36891	-0.95	1.1	1.0000 
	-4	0	-28	39799	7351	41505	-0.98	-1.06	1.0000 
	0	4	-28	23447	4795	24711	-0.95	-1.1	1.0000 
	4	0	-28	34165	5902	35727	-0.97	-1.2	1.0000 
	-4	0	-30	89709	8168	86418	-1.26	-0.69	1.0000 
	0	4	-30	76325	6811	73334	-1.24	-0.62	1.0000 
	0	-4	-30	87315	9478	84182	-1.23	-0.77	1.0000 
	4	0	-30	85719	7756	82647	-1.21	-0.72	1.0000 
	-4	0	-30	88380	9706	85113	-1.26	-0.69	1.0000 
	0	-4	-30	84123	8118	81048	-1.23	-0.77	1.0000 
	0	4	-30	61208	5726	58531	-1.24	-0.62	1.0000 
	4	0	-30	79882	8599	76917	-1.21	-0.72	1.0000 
	-4	0	-32	106370	17954	106301	0.08	1.12	1.0000 
	0	4	-32	74145	12436	73942	0.14	1.08	1.0000 
	0	-4	-32	96514	17177	96451	0.08	1.12	1.0000 
	4	0	-32	102414	17463	102189	0.13	1.06	1.0000 
	-4	0	-32	92987	16388	92921	0.08	1.12	1.0000 
	0	4	-32	66951	11406	66756	0.14	1.08	1.0000 
	0	-4	-32	92716	16087	92654	0.08	1.12	1.0000 
	4	0	-32	102037	18326	101813	0.13	1.06	1.0000 
	0	-4	-34	70615	18691	76071	2.24	0.11	1.0000 
	0	4	-34	43569	11473	47836	2.22	0.13	1.0000 
	4	0	-34	68587	17791	73932	2.22	0.1	1.0000 
	0	-4	-34	67119	17664	72440	2.24	0.11	1.0000 
	-4	0	-34	59100	15636	64081	2.23	0.13	1.0000 
	4	0	-34	64307	17266	69486	2.22	0.1	1.0000 
	-4	0	-36	23637	7566	26457	-1.99	-0.38	1.0000 
	0	-4	-36	25588	8251	28518	-1.99	-0.42	1.0000 
	4	0	-36	25351	7878	28293	-2	-0.46	1.0000 
	0	-4	-36	26749	8006	29743	-1.99	-0.42	1.0000 
	4	0	-36	31328	9168	34590	-2	-0.46	1.0000 
	-1	-4	0	121774	2660	102624	6.33	-0.31	1.0000 
	-1	-4	0	116708	2565	97978	6.33	-0.31	1.0000 
	-4	1	0	126632	3264	100330	8.65	0.43	1.0000 
	-1	-4	0	117242	2573	98467	6.33	-0.31	1.0000 
	-4	1	0	124478	3186	98414	8.65	0.43	1.0000 
	1	4	0	116926	2568	98178	6.33	0.31	1.0000 
	4	1	0	117337	3094	98535	6.34	0.27	1.0000 
	-1	-4	0	118162	2586	99311	6.33	-0.31	1.0000 
	-1	-4	0	114514	2514	95969	6.33	-0.31	1.0000 
	-4	1	0	123091	3148	97181	8.65	0.43	1.0000 
	-1	-4	1	33125	868	30517	-1.62	-0.8	1.0000 
	-1	-4	1	29673	793	27206	-1.62	-0.8	1.0000 
	-4	1	1	31632	1423	30792	0.54	0.55	1.0000 
	-4	-1	1	33752	1487	31163	-1.59	-0.63	1.0000 
	-4	1	-1	30712	1381	29886	0.54	-0.64	1.0000 
	-4	1	1	31966	1419	31122	0.54	0.55	1.0000 
	-4	1	-1	29484	1335	28675	0.54	-0.64	1.0000 
	-4	-1	1	33931	1481	31335	-1.59	-0.63	1.0000 
	-1	-4	-1	29196	884	26813	-1.57	0.53	1.0000 
	1	-4	-1	25953	674	25263	0.48	-0.4	1.0000 
	1	4	1	29960	896	27546	-1.57	-0.53	1.0000 
	1	4	-1	33054	883	30448	-1.62	0.8	1.0000 
	1	4	1	30668	904	28225	-1.57	-0.53	1.0000 
	4	-1	1	27798	1237	27012	0.54	0.64	1.0000 
	-1	4	1	25330	661	24648	0.48	0.4	1.0000 
	-1	4	1	27065	699	26360	0.48	0.4	1.0000 
	-1	-4	1	29961	801	27482	-1.62	-0.8	1.0000 
	-4	-1	1	33666	1519	31080	-1.59	-0.63	1.0000 
	-4	1	1	31306	1431	30470	0.54	0.55	1.0000 
	-1	4	2	175453	3818	150145	-6.94	-0.39	1.0000 
	-1	-4	-2	180680	3895	148698	-8.7	1.35	1.0000 
	-1	-4	2	170585	3496	140072	-8.55	-1.41	1.0000 
	-4	1	2	172480	4455	147193	-7	-0.52	1.0000 
	-4	1	2	175354	4455	149849	-7	-0.52	1.0000 
	-4	1	-2	174164	4403	148953	-6.95	0.23	1.0000 
	-1	-4	-2	177959	3841	146231	-8.7	1.35	1.0000 
	1	-4	-2	176250	3865	150882	-6.94	0.39	1.0000 
	1	-4	-2	176657	3844	151259	-6.94	0.39	1.0000 
	1	4	-2	185634	3843	153740	-8.55	1.41	1.0000 
	-1	4	2	174920	3807	149652	-6.94	-0.39	1.0000 
	4	-1	2	180454	4567	154774	-6.95	-0.23	1.0000 
	1	4	2	186334	4003	153832	-8.7	-1.35	1.0000 
	-1	4	2	180301	3934	154632	-6.94	-0.39	1.0000 
	-1	-4	2	182755	3767	151121	-8.55	-1.41	1.0000 
	-4	1	2	177511	4524	151843	-7	-0.52	1.0000 
	-4	-1	2	183002	4476	151035	-8.64	-1.37	1.0000 
	-1	-4	3	52285	909	30439	12.14	-2.36	1.0000 
	-4	1	3	59104	1627	33202	-13.5	-0.3	1.0000 
	-4	-1	3	55911	1516	33154	12.19	-2.39	1.0000 
	1	-4	-3	61163	1129	34464	-13.65	-0.29	1.0000 
	-4	1	3	61244	1818	34811	-13.5	-0.3	1.0000 
	1	-4	-3	60904	1115	34270	-13.65	-0.29	1.0000 
	-4	-1	3	58445	1654	35116	12.19	-2.39	1.0000 
	-4	1	-3	61326	1516	34665	-13.6	-0.58	1.0000 
	-1	-4	-3	58081	1178	34726	12.27	2.58	1.0000 
	1	4	-3	58011	990	34853	12.14	2.36	1.0000 
	4	-1	3	62468	1464	35525	-13.6	0.58	1.0000 
	1	4	3	60135	1196	36322	12.27	-2.58	1.0000 
	-1	4	3	61447	1120	34677	-13.65	0.29	1.0000 
	-4	-1	3	59866	1648	36222	12.19	-2.39	1.0000 
	-4	1	3	64093	1745	36967	-13.5	-0.3	1.0000 
	-1	-4	4	118223	3513	138349	-6.25	1.2	1.0000 
	-4	1	4	125586	4403	141747	-4.82	-2.06	1.0000 
	-4	-1	4	118704	4182	138814	-6.23	1.04	1.0000 
	-4	1	4	123961	4325	140019	-4.82	-2.06	1.0000 
	-4	-1	4	117262	4117	137254	-6.23	1.04	1.0000 
	-4	1	-4	124599	4215	140141	-4.66	1.99	1.0000 
	-1	-4	-4	124990	3952	145483	-6.19	-0.92	1.0000 
	1	4	-4	127411	3793	148276	-6.25	-1.2	1.0000 
	4	-1	4	121397	4015	136743	-4.66	-1.99	1.0000 
	1	4	4	123886	3884	144291	-6.19	0.92	1.0000 
	-1	-4	4	126761	3734	147575	-6.25	1.2	1.0000 
	-1	-4	4	113986	3410	133762	-6.25	1.2	1.0000 
	-4	1	4	119279	4323	135039	-4.82	-2.06	1.0000 
	-4	-1	4	113628	4039	133320	-6.23	1.04	1.0000 
	-4	-1	5	86908	2776	61260	-10.45	-1.32	1.0000 
	-4	1	5	101099	2979	60760	15.83	-0.02	1.0000 
	-4	-1	5	88163	2760	62315	-10.45	-1.32	1.0000 
	-4	1	5	103874	2934	62916	15.83	-0.02	1.0000 
	-4	1	-5	100673	2452	60745	15.68	0.25	1.0000 
	1	4	-5	88664	2059	62616	-10.51	1.14	1.0000 
	-1	-4	-5	90638	2284	64467	-10.42	1.11	1.0000 
	1	-4	-5	99542	2345	59779	15.72	0.14	1.0000 
	4	-1	5	100959	2365	60967	15.68	-0.25	1.0000 
	4	1	5	89561	2858	63446	-10.48	-0.9	1.0000 
	-1	-4	5	91556	2082	65050	-10.51	-1.14	1.0000 
	1	4	5	92918	2313	66392	-10.42	-1.11	1.0000 
	-4	-1	5	92024	2868	65568	-10.45	-1.32	1.0000 
	-4	1	5	107173	2997	65489	15.83	-0.02	1.0000 
	-1	4	6	31710	1745	41766	5.72	-4.05	1.0000 
	-4	1	6	33243	2219	43585	5.77	-3.79	1.0000 
	-1	4	-6	31656	1374	41818	5.82	3.54	1.0000 
	-4	-1	6	30825	2053	42168	6.6	-0.58	1.0000 
	-4	-1	6	31389	2100	42827	6.6	-0.58	1.0000 
	-4	1	6	33546	2281	43934	5.77	-3.79	1.0000 
	-1	4	-6	32328	1390	42592	5.82	3.54	1.0000 
	1	4	-6	31476	1538	42879	6.58	0.51	1.0000 
	1	-4	-6	30184	1615	40004	5.72	4.05	1.0000 
	-1	-4	6	28893	1379	39854	6.58	-0.51	1.0000 
	1	-4	6	30123	1280	40048	5.82	-3.54	1.0000 
	1	4	6	30299	1968	41670	6.67	-0.84	1.0000 
	-1	4	6	29262	1578	38937	5.72	-4.05	1.0000 
	-4	1	6	31090	2194	41106	5.77	-3.79	1.0000 
	-4	-1	6	29587	1970	40717	6.6	-0.58	1.0000 
	-1	4	-6	29838	1313	39717	5.82	3.54	1.0000 
	-4	1	7	130257	4254	119191	-3.46	-0.86	1.0000 
	-4	-1	7	130002	4184	117440	3.97	0.7	1.0000 
	-4	-1	7	131936	4224	119279	3.97	0.7	1.0000 
	-1	4	-7	129295	3698	118120	-3.5	1.02	1.0000 
	1	-4	-7	128901	4062	117827	-3.48	0.87	1.0000 
	1	-4	7	126500	3558	115449	-3.5	-1.02	1.0000 
	4	-1	7	130864	4168	119513	-3.54	-1.03	1.0000 
	1	4	7	138783	4171	125890	3.94	0.67	1.0000 
	-1	4	7	125514	4064	114590	-3.48	-0.87	1.0000 
	-1	4	-7	117012	3366	106392	-3.5	1.02	1.0000 
	-4	1	7	131166	4281	120061	-3.46	-0.86	1.0000 
	-4	-1	7	130666	4209	118071	3.97	0.7	1.0000 
	-1	4	8	26976	1514	30936	2.54	1.34	1.0000 
	-4	-1	8	29103	3274	32951	2.42	-0.06	1.0000 
	-4	1	8	28577	2231	32558	2.47	1.61	1.0000 
	-1	4	-8	28147	1259	32127	2.49	-1.64	1.0000 
	1	-4	-8	24048	1759	27792	2.54	-1.34	1.0000 
	1	4	-8	28069	1718	31816	2.4	0.02	1.0000 
	1	-4	8	27021	1148	30923	2.49	1.64	1.0000 
	1	4	8	28830	1471	32711	2.45	-0.07	1.0000 
	-1	4	8	24591	3988	28376	2.54	1.34	1.0000 
	-4	-1	8	26247	2846	29907	2.42	-0.06	1.0000 
	-4	1	8	26713	2118	30565	2.47	1.61	1.0000 
	-4	-1	9	91553	4186	115026	8.08	0.9	1.0000 
	-4	1	9	110215	4259	116681	-2.14	-2.83	1.0000 
	-4	-1	-9	92650	4302	116187	8.06	-0.72	1.0000 
	-1	4	-9	111501	3868	118095	-2.17	2.84	1.0000 
	1	-4	-9	104826	3977	111150	-2.15	2.89	1.0000 
	4	1	9	80388	3780	102403	8.06	0.72	1.0000 
	1	4	9	88981	3915	112117	8.07	0.9	1.0000 
	1	-4	9	108779	3686	115291	-2.17	-2.84	1.0000 
	-1	4	9	104952	4270	111280	-2.15	-2.89	1.0000 
	-4	1	9	105821	4118	112155	-2.14	-2.83	1.0000 
	-4	-1	9	87271	4295	110220	8.08	0.9	1.0000 
	-1	4	10	62809	3890	62848	-0.03	0.92	1.0000 
	-4	-1	10	62973	3462	63248	-0.14	0.89	1.0000 
	-4	-1	-10	55158	2496	55708	-0.27	-0.87	1.0000 
	-1	4	-10	44403	1763	44396	-0.02	-1.19	1.0000 
	1	-4	-10	51882	2420	51916	-0.03	-0.92	1.0000 
	4	1	10	54654	2409	55201	-0.27	0.87	1.0000 
	1	-4	10	45361	1698	45354	-0.02	1.19	1.0000 
	-1	4	10	54189	2977	54224	-0.03	0.92	1.0000 
	-4	-1	10	62020	2992	62293	-0.14	0.89	1.0000 
	-1	4	11	141863	5587	151394	2.76	0.02	1.0000 
	-4	-1	-11	129206	5240	136774	-2.31	0.6	1.0000 
	-4	1	-11	127238	5186	136322	2.77	-0.11	1.0000 
	1	-4	-11	136058	6876	145395	2.76	-0.02	1.0000 
	4	1	11	132255	5233	139910	-2.31	-0.6	1.0000 
	1	-4	11	112992	4229	121642	2.79	0.1	1.0000 
	-1	4	11	140644	5808	150135	2.76	0.02	1.0000 
	-1	4	12	147465	5589	139178	-2.43	0.04	1.0000 
	1	4	-12	147889	5153	140783	-2.08	-0.21	1.0000 
	1	-4	-12	130901	6940	123100	-2.43	-0.04	1.0000 
	-1	4	12	138742	5205	130708	-2.43	0.04	1.0000 
	-1	4	13	122066	5045	127352	-1.66	1.52	1.0000 
	-1	-4	13	129045	4779	131147	0.65	0.39	1.0000 
	-4	-1	-13	131403	5741	133664	0.69	-0.28	1.0000 
	-4	1	-13	127175	5340	132547	-1.66	-1.44	1.0000 
	-1	4	-13	109610	4337	114262	-1.55	-1.56	1.0000 
	1	4	-13	130317	4913	132429	0.65	-0.39	1.0000 
	4	1	13	136878	5657	139185	0.69	0.28	1.0000 
	4	-1	13	130529	5591	135971	-1.66	1.44	1.0000 
	1	-4	13	129532	4849	134589	-1.55	1.56	1.0000 
	-1	-4	13	134855	4970	137003	0.65	0.39	1.0000 
	-1	4	13	121773	5238	127053	-1.66	1.52	1.0000 
	-4	-1	14	204261	7654	202402	0.47	-0.47	1.0000 
	1	-4	14	207679	6640	202701	1.28	-1.69	1.0000 
	-4	1	14	207099	7337	202291	1.24	-1.65	1.0000 
	-4	-1	14	204073	7391	202215	0.47	-0.47	1.0000 
	-1	-4	15	65456	2807	68669	-1.31	2.97	1.0000 
	-4	-1	-15	63389	6775	66506	-1.3	-2.76	1.0000 
	-4	1	-15	62367	5045	63985	0.71	-0.22	1.0000 
	-1	4	-15	61268	3133	62965	0.76	-0.36	1.0000 
	1	4	-15	66045	3648	69273	-1.31	-2.97	1.0000 
	4	-1	15	64814	3257	66463	0.71	0.22	1.0000 
	1	-4	15	57073	3139	58711	0.76	0.36	1.0000 
	4	1	15	64530	3327	67676	-1.3	2.76	1.0000 
	-1	-4	15	63297	2796	66454	-1.31	2.97	1.0000 
	-4	1	15	65136	3008	66797	0.72	0.42	1.0000 
	-4	-1	16	172431	6305	171106	-0.33	-1.01	1.0000 
	-4	1	16	180443	6373	172066	-2.23	0.57	1.0000 
	-4	1	-16	185024	6524	176591	-2.21	-0.47	1.0000 
	-1	4	-16	179318	6009	171139	-2.18	-0.47	1.0000 
	1	-4	16	181229	5858	173006	-2.18	0.47	1.0000 
	4	1	16	182231	8209	181036	-0.28	-0.97	1.0000 
	-4	-1	16	172008	6375	170685	-0.33	-1.01	1.0000 
	-4	1	16	179983	6433	171617	-2.23	0.57	1.0000 
	-1	-4	17	2332	545	1463	-2.31	1.26	1.0000 
	-4	1	17	2770	1168	2520	0.76	-1.05	1.0000 
	-4	-1	17	2999	1265	2016	-2.34	1.5	1.0000 
	-4	-1	-17	1620	498	906	-2.35	-1.48	1.0000 
	-4	1	-17	689	318	536	0.85	1.07	1.0000 
	-1	4	-17	1484	449	1280	0.79	0.99	1.0000 
	1	4	-17	2676	310	1741	-2.31	-1.26	1.0000 
	4	1	17	1750	513	1006	-2.35	1.48	1.0000 
	4	-1	17	728	389	571	0.85	-1.07	1.0000 
	1	-4	17	1210	403	1024	0.79	-0.99	1.0000 
	-1	-4	17	2933	376	1952	-2.31	1.26	1.0000 
	-4	1	17	2407	592	2172	0.76	-1.05	1.0000 
	-4	-1	17	3136	959	2130	-2.34	1.5	1.0000 
	-1	-4	18	155066	7794	160172	-1.41	-0.45	1.0000 
	-4	1	18	142373	8521	146480	-1.19	-0.24	1.0000 
	-4	-1	18	146497	7670	151492	-1.42	-0.49	1.0000 
	-4	-1	-18	145577	8332	150383	-1.37	0.36	1.0000 
	-4	1	-18	148006	8625	151919	-1.11	0.24	1.0000 
	-1	4	-18	145707	7403	149856	-1.18	0.34	1.0000 
	1	4	-18	152757	8798	157825	-1.41	0.45	1.0000 
	1	-4	18	149615	7667	153819	-1.18	-0.34	1.0000 
	4	1	18	152457	8311	157375	-1.37	-0.36	1.0000 
	4	-1	18	151561	8354	155520	-1.11	-0.24	1.0000 
	-1	-4	18	153861	7709	158947	-1.41	-0.45	1.0000 
	-4	-1	18	145368	7633	150344	-1.42	-0.49	1.0000 
	-4	1	18	140530	8406	144611	-1.19	-0.24	1.0000 
	-1	-4	19	2957	1591	2924	-0.05	-0.35	1.0000 
	-4	-1	19	4549	2913	4512	-0.05	-0.27	1.0000 
	-4	1	19	1279	2997	794	1.65	-0.66	1.0000 
	-4	-1	-19	5317	2138	5307	-0.01	0.2	1.0000 
	-4	1	-19	6227	2045	5119	1.61	0.63	1.0000 
	-1	4	-19	4316	833	3390	1.63	0.67	1.0000 
	1	4	-19	6878	1311	6830	-0.05	0.35	1.0000 
	1	-4	19	2991	1044	2228	1.63	-0.67	1.0000 
	4	1	19	6236	2001	6225	-0.01	-0.2	1.0000 
	4	-1	19	6995	2570	5818	1.61	-0.63	1.0000 
	-1	-4	19	6097	1064	6051	-0.05	-0.35	1.0000 
	-4	1	19	7560	2458	6309	1.65	-0.66	1.0000 
	-4	-1	19	6951	1429	6905	-0.05	-0.27	1.0000 
	-4	-1	20	69515	4999	68189	-0.55	-0.19	1.0000 
	-4	1	20	71565	4261	69546	-0.83	-0.25	1.0000 
	-4	-1	-20	65666	5244	64355	-0.56	0.23	1.0000 
	-4	1	-20	65644	5792	63773	-0.8	0.41	1.0000 
	-1	4	-20	68541	4735	66559	-0.83	0.35	1.0000 
	1	4	-20	69696	5986	68292	-0.59	0.19	1.0000 
	4	-1	20	68782	5220	66867	-0.8	-0.41	1.0000 
	1	-4	20	71768	4361	69739	-0.83	-0.35	1.0000 
	4	1	20	68122	5083	66786	-0.56	-0.23	1.0000 
	-4	-1	20	69159	4329	67836	-0.55	-0.19	1.0000 
	-4	1	20	67577	4164	65616	-0.83	-0.25	1.0000 
	-1	-4	21	11665	4712	8322	3.74	-0.51	1.0000 
	-4	1	21	28666	3139	21129	-5.31	-0.15	1.0000 
	-4	-1	21	20524	3872	16004	3.74	-0.5	1.0000 
	-4	1	-21	20533	3949	14265	-5.3	0.31	1.0000 
	-4	-1	-21	20450	4259	15907	3.77	0.53	1.0000 
	-1	4	-21	22008	3117	15500	-5.29	0.23	1.0000 
	1	4	-21	22462	2817	17718	3.74	0.51	1.0000 
	1	-4	21	25434	3071	18395	-5.29	-0.23	1.0000 
	4	1	21	24022	3239	19075	3.77	-0.53	1.0000 
	4	-1	21	25597	3887	18533	-5.3	-0.31	1.0000 
	-1	-4	21	24007	2699	19094	3.74	-0.51	1.0000 
	-4	-1	21	26501	3338	21328	3.74	-0.5	1.0000 
	-4	1	21	26596	3073	19357	-5.31	-0.15	1.0000 
	-4	-1	-21	22858	1777	18039	3.77	0.53	1.0000 
	4	1	-21	19733	2035	15306	3.74	0.5	1.0000 
	4	-1	-21	23237	1994	16508	-5.31	0.15	1.0000 
	1	-4	21	24864	2300	17911	-5.29	-0.23	1.0000 
	-1	-4	21	22076	1897	17376	3.74	-0.51	1.0000 
	-4	1	22	12831	2787	12847	0.05	-1.08	1.0000 
	-4	-1	22	11888	2682	11916	0.04	-1.19	1.0000 
	-4	-1	-22	10342	2825	10288	0.13	1.16	1.0000 
	-1	4	-22	9057	2276	9047	0.07	1.13	1.0000 
	1	4	-22	10018	2227	10009	0.07	1.13	1.0000 
	4	-1	-22	12106	2475	12121	0.05	1.08	1.0000 
	4	1	22	11571	2882	11515	0.13	-1.16	1.0000 
	1	-4	22	11058	2176	11050	0.07	-1.13	1.0000 
	-1	4	22	12234	2491	12270	0.03	-1.11	1.0000 
	-1	-4	22	12522	2095	12515	0.07	-1.13	1.0000 
	-4	1	22	10770	2368	10782	0.05	-1.08	1.0000 
	-4	-1	22	11548	2300	11576	0.04	-1.19	1.0000 
	-4	-1	-22	8140	2145	8089	0.13	1.16	1.0000 
	-1	-4	-22	10186	1758	10167	0.09	1.2	1.0000 
	1	-4	-22	9667	1747	9697	0.03	1.11	1.0000 
	4	1	-22	9171	1773	9192	0.04	1.19	1.0000 
	4	-1	-22	10062	1493	10073	0.05	1.08	1.0000 
	1	-4	22	10046	1759	10037	0.07	-1.13	1.0000 
	-1	-4	22	9665	1473	9656	0.07	-1.13	1.0000 
	-4	-1	-22	12169	1738	12113	0.13	1.16	1.0000 
	-1	-4	-22	8749	1537	8730	0.09	1.2	1.0000 
	1	-4	-22	9737	1740	9767	0.03	1.11	1.0000 
	-4	1	23	33293	4747	30973	1.41	0.78	1.0000 
	-4	-1	23	28952	5383	22950	-4.15	-0.43	1.0000 
	-4	-1	-23	25880	6762	20246	-4.13	0.31	1.0000 
	-1	4	-23	23703	5379	21711	1.44	-0.82	1.0000 
	1	4	-23	29820	5253	23686	-4.18	0.44	1.0000 
	4	1	-23	29214	6180	23183	-4.15	0.43	1.0000 
	4	-1	-23	29052	6668	26886	1.41	-0.78	1.0000 
	4	1	23	33014	6339	26606	-4.13	-0.31	1.0000 
	1	-4	23	32463	5013	30126	1.44	0.82	1.0000 
	-1	4	23	34566	5477	32204	1.41	0.78	1.0000 
	-1	-4	23	38274	4676	31279	-4.18	-0.44	1.0000 
	-4	-1	23	35811	4112	29097	-4.15	-0.43	1.0000 
	-4	1	23	32768	4771	30466	1.41	0.78	1.0000 
	-4	-1	-23	34100	3589	27582	-4.13	0.31	1.0000 
	4	-1	-23	30019	4202	27817	1.41	-0.78	1.0000 
	4	1	-23	34830	3181	28213	-4.15	0.43	1.0000 
	-1	-4	23	33450	3840	26933	-4.18	-0.44	1.0000 
	1	-4	23	32401	2922	30066	1.44	0.82	1.0000 
	-4	-1	-23	40012	4117	32923	-4.13	0.31	1.0000 
	-4	-1	24	16343	3831	13740	2.39	-1.1	1.0000 
	-4	1	24	20940	3375	18405	2.02	1.33	1.0000 
	-4	-1	-24	15711	4325	13100	2.45	1	1.0000 
	-1	4	-24	15508	3688	13332	2.02	-1.27	1.0000 
	1	4	-24	16592	3723	13928	2.43	1.13	1.0000 
	4	1	-24	17278	4125	14599	2.39	1.1	1.0000 
	4	-1	-24	18469	3659	16091	2.02	-1.33	1.0000 
	1	-4	24	20758	3795	18233	2.02	1.27	1.0000 
	4	1	24	18839	3524	15971	2.45	-1	1.0000 
	-1	-4	24	21134	3272	18116	2.43	-1.13	1.0000 
	-1	4	24	21612	4248	19024	2.03	1.37	1.0000 
	-4	1	24	21448	3215	18882	2.02	1.33	1.0000 
	-4	-1	24	23130	3575	20017	2.39	-1.1	1.0000 
	-4	-1	-24	19254	2957	16354	2.45	1	1.0000 
	1	4	-24	10602	2125	8490	2.43	1.13	1.0000 
	4	-1	-24	20082	3554	17601	2.02	-1.33	1.0000 
	4	1	-24	24335	3616	21140	2.39	1.1	1.0000 
	1	-4	24	27019	4272	24132	2.02	1.27	1.0000 
	-1	-4	24	21727	3355	18666	2.43	-1.13	1.0000 
	-4	-1	-24	27046	3888	23591	2.45	1	1.0000 
	-4	1	25	6080	1318	5937	-0.19	-0.21	1.0000 
	-4	-1	25	4145	1481	4565	-0.74	-0.72	1.0000 
	-4	-1	-25	4101	1567	4509	-0.71	0.58	1.0000 
	-4	1	-25	4437	1567	4343	-0.15	0.14	1.0000 
	1	-4	-25	4620	1181	4510	-0.17	0.15	1.0000 
	1	4	-25	3847	1056	4264	-0.76	0.69	1.0000 
	4	-1	-25	4836	1614	4708	-0.19	0.21	1.0000 
	4	1	25	4617	1603	5049	-0.71	-0.58	1.0000 
	1	4	25	5530	1414	6005	-0.72	-0.62	1.0000 
	-1	4	25	6396	1308	6267	-0.17	-0.15	1.0000 
	-1	-4	25	5050	1026	5528	-0.76	-0.69	1.0000 
	-4	-1	25	6521	1241	7048	-0.74	-0.72	1.0000 
	-4	1	25	6080	1406	5937	-0.19	-0.21	1.0000 
	-4	-1	-25	4910	1709	5356	-0.71	0.58	1.0000 
	1	4	-25	3575	877	3977	-0.76	0.69	1.0000 
	4	1	-25	5863	1446	6363	-0.74	0.72	1.0000 
	4	-1	-25	5233	1725	5100	-0.19	0.21	1.0000 
	-1	-4	25	7772	1447	8365	-0.76	-0.69	1.0000 
	1	-4	25	8855	1487	8708	-0.16	-0.22	1.0000 
	-4	-1	-25	8188	1502	8763	-0.71	0.58	1.0000 
	1	4	-25	3496	724	3894	-0.76	0.69	1.0000 
	-4	-1	-26	536596	145001	582768	6.77	-1.1	1.0000 
	-1	4	-26	2764	1609	7008	6.88	-0.44	1.0000 
	1	4	-26	3142	1278	7572	6.81	-1.02	1.0000 
	4	1	-26	6735	1346	12810	6.84	-0.97	1.0000 
	4	-1	-26	4112	2846	9077	6.88	-0.61	1.0000 
	1	-4	26	8279	1758	14916	6.88	0.44	1.0000 
	-1	-4	26	5677	1267	11304	6.81	1.02	1.0000 
	-4	-1	-26	305072	84659	340119	6.77	-1.1	1.0000 
	-1	4	-26	2850	828	7144	6.88	-0.44	1.0000 
	1	4	-26	3601	818	8276	6.81	-1.02	1.0000 
	4	1	-26	6651	875	12694	6.84	-0.97	1.0000 
	4	-1	-26	4076	1456	9024	6.88	-0.61	1.0000 
	-1	4	-27	4928	1658	4474	0.77	0.73	1.0000 
	-1	-4	-27	7356	1619	6553	-1.05	-0.49	1.0000 
	-4	-1	-27	7193	2204	6419	-1.02	-0.57	1.0000 
	1	4	-27	7752	1348	6937	-1.04	-0.49	1.0000 
	4	-1	-27	7982	1637	7405	0.77	0.7	1.0000 
	4	1	-27	9853	1881	8926	-1.05	-0.41	1.0000 
	1	-4	27	11308	1940	10621	0.77	-0.73	1.0000 
	-1	4	-27	5368	1384	4894	0.77	0.73	1.0000 
	-4	-1	-27	7969	1250	7153	-1.02	-0.57	1.0000 
	1	4	-27	6193	1523	5466	-1.04	-0.49	1.0000 
	4	1	-27	9364	1441	8461	-1.05	-0.41	1.0000 
	4	-1	-27	8431	1423	7838	0.77	0.7	1.0000 
	-1	4	-28	25108	4020	22394	1.96	0.23	1.0000 
	-1	-4	-28	35724	6132	32191	2.13	0.08	1.0000 
	-4	-1	-28	32635	5286	29262	2.13	0.03	1.0000 
	1	4	-28	26317	4662	23212	2.2	0.19	1.0000 
	4	1	-28	39192	6499	35362	2.21	0.22	1.0000 
	4	-1	-28	37537	5456	34178	1.97	0.08	1.0000 
	-1	4	-28	23995	4093	21343	1.96	0.23	1.0000 
	-4	-1	-28	37480	6315	33859	2.13	0.03	1.0000 
	-1	-4	-28	39586	6413	35862	2.13	0.08	1.0000 
	1	4	-28	26468	4229	23354	2.2	0.19	1.0000 
	4	1	-28	36620	5674	32921	2.21	0.22	1.0000 
	4	-1	-28	36599	6140	33283	1.97	0.08	1.0000 
	-4	-1	-29	3069	1280	3759	-1.31	-0.14	1.0000 
	-1	-4	-29	3540	1495	4288	-1.33	-0.13	1.0000 
	-1	4	-29	2485	1030	2519	0.08	-0.17	1.0000 
	1	4	-29	3112	1164	3833	-1.36	-0.05	1.0000 
	1	-4	-29	4433	1479	4471	0.07	-0.14	1.0000 
	4	-1	-29	4846	1583	4894	0.08	-0.13	1.0000 
	4	1	-29	3813	1476	4616	-1.37	-0.04	1.0000 
	-1	4	-29	2588	854	2623	0.08	-0.17	1.0000 
	-4	-1	-29	3828	1334	4594	-1.31	-0.14	1.0000 
	-1	-4	-29	3922	1481	4708	-1.33	-0.13	1.0000 
	1	-4	-29	4556	1377	4595	0.07	-0.14	1.0000 
	1	4	-29	2349	910	2980	-1.36	-0.05	1.0000 
	4	1	-29	3692	1285	4482	-1.37	-0.04	1.0000 
	4	-1	-29	4222	1256	4267	0.08	-0.13	1.0000 
	-4	-1	-30	53824	7928	53848	0.01	-0.09	1.0000 
	-1	-4	-30	49110	7556	49132	0.01	-0.11	1.0000 
	1	4	-30	28270	5630	28258	-0.01	-0.05	1.0000 
	1	-4	-30	56406	8265	55332	-0.48	0.75	1.0000 
	4	1	-30	52891	8414	52886	-0.01	-0.08	1.0000 
	4	-1	-30	59392	7984	58213	-0.52	0.62	1.0000 
	-1	4	-30	28426	5452	27570	-0.54	0.66	1.0000 
	-4	-1	-30	60012	9626	60038	0.01	-0.09	1.0000 
	1	-4	-30	57778	9069	56691	-0.48	0.75	1.0000 
	-1	-4	-30	58368	9022	58392	0.01	-0.11	1.0000 
	1	4	-30	40550	6693	40536	-0.01	-0.05	1.0000 
	4	-1	-30	53984	7849	52860	-0.52	0.62	1.0000 
	4	1	-30	61212	8826	61206	-0.01	-0.08	1.0000 
	-4	-1	-31	242	224	358	0.74	-0.19	1.0000 
	1	4	-31	231	138	345	0.74	-0.16	1.0000 
	-1	-4	-31	492	304	640	0.68	-0.22	1.0000 
	-1	4	-31	116	118	264	-1.21	-0.14	1.0000 
	4	-1	-31	498	332	765	-1.18	-0.08	1.0000 
	4	1	-31	860	397	1053	0.68	-0.2	1.0000 
	1	-4	-31	373	275	602	-1.15	-0.15	1.0000 
	-1	-4	-31	9	116	37	0.68	-0.22	1.0000 
	-4	-1	-31	199	271	306	0.74	-0.19	1.0000 
	-1	4	-31	45	90	148	-1.21	-0.14	1.0000 
	1	-4	-31	495	272	754	-1.15	-0.15	1.0000 
	1	4	-31	183	121	285	0.74	-0.16	1.0000 
	4	1	-31	852	409	1045	0.68	-0.2	1.0000 
	4	-1	-31	965	504	1326	-1.18	-0.08	1.0000 
	1	-4	-32	61233	10941	61637	-0.21	-0.95	1.0000 
	1	4	-32	43106	8521	44183	-0.58	-0.3	1.0000 
	-1	-4	-32	60670	10592	61960	-0.59	-0.24	1.0000 
	4	-1	-32	61556	10837	62031	-0.24	-0.95	1.0000 
	4	1	-32	68070	12468	69471	-0.6	-0.31	1.0000 
	-1	-4	-32	61381	11575	62679	-0.59	-0.24	1.0000 
	-4	-1	-32	58303	10950	59504	-0.56	-0.25	1.0000 
	-1	4	-32	25499	5952	25794	-0.24	-0.98	1.0000 
	1	4	-32	38751	7573	39772	-0.58	-0.3	1.0000 
	1	-4	-32	56843	10278	57231	-0.21	-0.95	1.0000 
	4	1	-32	55349	10263	56613	-0.6	-0.31	1.0000 
	4	-1	-32	63978	11334	64463	-0.24	-0.95	1.0000 
	-1	4	-33	20	52	4	-0.92	1.05	1.0000 
	-4	-1	-33	15	507	-316	0.72	-0.49	1.0000 
	-1	-4	-33	15	316	-53	0.7	-0.51	1.0000 
	1	4	-33	51	73	106	0.73	-0.44	1.0000 
	1	-4	-33	15	112	89	-0.92	1.07	1.0000 
	4	-1	-33	181	327	376	-0.93	1.07	1.0000 
	4	1	-33	106	136	180	0.7	-0.47	1.0000 
	-1	-4	-33	267	340	382	0.7	-0.51	1.0000 
	-4	-1	-33	15	472	-233	0.72	-0.49	1.0000 
	-1	4	-33	24	120	109	-0.92	1.05	1.0000 
	1	4	-33	75	105	140	0.73	-0.44	1.0000 
	1	-4	-33	477	403	772	-0.92	1.07	1.0000 
	4	1	-33	747	433	933	0.7	-0.47	1.0000 
	-1	4	-34	17784	4973	15952	-1.59	-0.58	1.0000 
	-1	-4	-34	25778	5695	23250	-1.79	0.08	1.0000 
	1	-4	-34	44956	11256	42007	-1.6	-0.57	1.0000 
	4	1	-34	47681	11515	44222	-1.79	-0.09	1.0000 
	4	-1	-34	45716	11385	42746	-1.59	-0.54	1.0000 
	-4	-1	-34	43240	10225	39945	-1.79	0.11	1.0000 
	-1	4	-34	12819	3509	11270	-1.59	-0.58	1.0000 
	-1	-4	-34	44577	10627	41232	-1.79	0.08	1.0000 
	1	-4	-34	41604	9696	38768	-1.6	-0.57	1.0000 
	4	1	-34	47409	11004	43960	-1.79	-0.09	1.0000 
	4	-1	-34	42512	9716	39649	-1.59	-0.54	1.0000 
	-4	-1	-35	2730	726	2196	1.17	-0.51	1.0000 
	1	-4	-35	3521	935	2990	-1.04	0.07	1.0000 
	1	4	-35	1914	519	1462	1.2	-0.46	1.0000 
	-1	-4	-35	3200	817	2616	1.18	-0.46	1.0000 
	4	-1	-35	4322	1157	3730	-1.04	0.01	1.0000 
	4	1	-35	4408	1134	3702	1.21	-0.4	1.0000 
	1	4	-35	1510	352	1112	1.2	-0.46	1.0000 
	-1	-4	-35	3110	795	2534	1.18	-0.46	1.0000 
	-1	4	-35	864	262	612	-1.03	-0.01	1.0000 
	1	-4	-35	3816	994	3263	-1.04	0.07	1.0000 
	4	-1	-35	5269	1335	4613	-1.04	0.01	1.0000 
	4	1	-35	5134	1282	4370	1.21	-0.4	1.0000 
	-4	-1	-36	15003	5611	17873	-2.48	0.02	1.0000 
	1	-4	-36	17867	5616	19522	-1.32	0.41	1.0000 
	-1	-4	-36	6870	3111	8866	-2.5	0.06	1.0000 
	4	1	-36	18017	5974	21156	-2.48	0.07	1.0000 
	4	-1	-36	17995	5454	19666	-1.33	0.37	1.0000 
	1	-4	-36	19453	5770	21179	-1.32	0.41	1.0000 
	-1	-4	-36	14293	4851	17116	-2.5	0.06	1.0000 
	4	-1	-36	18489	5370	20182	-1.33	0.37	1.0000 
	4	1	-36	18441	5815	21615	-2.48	0.07	1.0000 
	-2	4	0	7712	948	21796	-13.19	-1.23	1.0000 
	-4	2	0	7492	1217	21411	-13.18	-1.14	1.0000 
	-2	-4	0	7864	1114	22218	-13.32	1.17	1.0000 
	-4	-2	0	7232	1271	21150	-13.29	1.46	1.0000 
	-4	2	0	7589	1222	21574	-13.18	-1.14	1.0000 
	-4	-2	0	7355	1243	21359	-13.29	1.46	1.0000 
	-2	-4	0	7632	1047	21826	-13.32	1.17	1.0000 
	2	-4	0	7593	853	21595	-13.19	1.23	1.0000 
	-2	4	0	8603	898	23276	-13.19	-1.23	1.0000 
	-2	4	0	8155	958	22536	-13.19	-1.23	1.0000 
	-2	-4	0	8175	1085	22738	-13.32	1.17	1.0000 
	-4	2	0	7526	1229	21468	-13.18	-1.14	1.0000 
	-2	4	1	64002	2117	62074	0.85	0.07	1.0000 
	-2	4	-1	65252	2230	63515	0.75	-0.41	1.0000 
	-2	-4	1	63414	2067	58801	-2.09	-0.97	1.0000 
	-4	2	1	62314	2472	60609	0.76	0.52	1.0000 
	-2	-4	-1	55495	1875	51310	-2.02	0.62	1.0000 
	-4	-2	1	64331	2811	59697	-2.08	-0.89	1.0000 
	-4	2	-1	63383	2625	61450	0.86	0.03	1.0000 
	-2	-4	1	64135	2082	59496	-2.09	-0.97	1.0000 
	-4	2	1	63287	2529	61568	0.76	0.52	1.0000 
	-4	2	-1	61634	2523	59728	0.86	0.03	1.0000 
	-4	-2	1	62081	2327	57530	-2.08	-0.89	1.0000 
	-4	-2	-1	64060	2404	59521	-2.04	0.76	1.0000 
	-2	-4	-1	62281	2068	57843	-2.02	0.62	1.0000 
	2	-4	-1	60904	2010	59024	0.85	-0.07	1.0000 
	2	-4	1	58269	1854	56628	0.75	0.41	1.0000 
	4	2	1	63784	2328	59254	-2.04	-0.76	1.0000 
	2	4	1	67755	2417	63123	-2.02	-0.62	1.0000 
	-2	4	1	58387	1922	56546	0.85	0.07	1.0000 
	-2	4	-1	60127	1899	58460	0.75	-0.41	1.0000 
	-2	4	-1	63011	2032	61304	0.75	-0.41	1.0000 
	-2	4	1	64346	2140	62413	0.85	0.07	1.0000 
	-4	-2	1	63021	2360	58435	-2.08	-0.89	1.0000 
	-4	2	1	60309	2328	58631	0.76	0.52	1.0000 
	-2	-4	1	62644	2042	58060	-2.09	-0.97	1.0000 
	-4	2	-1	60610	2510	58720	0.86	0.03	1.0000 
	-2	4	2	24063	1388	35887	7.6	-0.02	1.0000 
	-2	4	-2	22394	1428	33923	7.64	-0.39	1.0000 
	-4	2	2	21635	1805	32989	7.65	0.09	1.0000 
	-4	-2	2	19116	1916	32563	9.36	-0.56	1.0000 
	-2	-4	2	19359	1354	32851	9.34	-0.46	1.0000 
	-4	2	-2	21053	1866	32177	7.58	-0.29	1.0000 
	-4	2	2	22192	1734	33676	7.65	0.09	1.0000 
	-2	-4	2	19669	1450	33254	9.34	-0.46	1.0000 
	-4	-2	2	20479	2128	34335	9.36	-0.56	1.0000 
	-4	2	-2	20351	1845	31308	7.58	-0.29	1.0000 
	-2	-4	-2	18181	1297	31482	9.45	0.87	1.0000 
	-4	-2	-2	19509	1777	33221	9.45	0.77	1.0000 
	2	-4	2	21156	1275	32396	7.64	0.39	1.0000 
	2	4	2	20573	2020	34607	9.45	-0.87	1.0000 
	4	2	2	19274	1514	32914	9.45	-0.77	1.0000 
	-2	4	-2	21004	1143	32208	7.64	-0.39	1.0000 
	-2	-4	2	19671	1370	33257	9.34	-0.46	1.0000 
	-2	4	-2	22232	1414	33724	7.64	-0.39	1.0000 
	-4	2	2	21209	1696	32463	7.65	0.09	1.0000 
	-4	2	-2	20279	1500	31218	7.58	-0.29	1.0000 
	-4	-2	2	19218	1856	32696	9.36	-0.56	1.0000 
	-2	4	-3	91683	3410	110752	6.66	1.15	1.0000 
	-2	4	3	95438	3764	114949	6.69	-1.14	1.0000 
	-2	-4	3	95589	3428	105876	-3.58	0.51	1.0000 
	-4	2	3	90842	3893	109788	6.65	-0.82	1.0000 
	-2	4	-3	92636	3493	111800	6.66	1.15	1.0000 
	-4	-2	3	99859	4114	110408	-3.58	0.75	1.0000 
	-4	2	-3	87910	3798	106701	6.7	1.45	1.0000 
	-4	2	3	90693	3866	109624	6.65	-0.82	1.0000 
	-2	-4	3	96286	3443	106609	-3.58	0.51	1.0000 
	-2	4	-3	90974	3431	109973	6.66	1.15	1.0000 
	-4	-2	3	100263	4139	110832	-3.58	0.75	1.0000 
	-4	2	-3	90649	3876	109717	6.7	1.45	1.0000 
	-4	-2	-3	100784	3974	111124	-3.51	-0.44	1.0000 
	-2	-4	-3	98713	3620	108941	-3.5	-0.68	1.0000 
	2	-4	3	88654	3320	107420	6.66	-1.15	1.0000 
	4	-2	3	95266	4329	114792	6.7	-1.45	1.0000 
	2	4	3	100199	3631	110502	-3.5	0.68	1.0000 
	4	2	3	94656	3891	104684	-3.51	0.44	1.0000 
	-2	4	-3	88888	3328	107677	6.66	1.15	1.0000 
	-2	4	3	92318	3679	111522	6.69	-1.14	1.0000 
	-2	4	-3	88951	3373	107747	6.66	1.15	1.0000 
	-4	2	3	87605	3787	106226	6.65	-0.82	1.0000 
	-2	-4	3	93726	3373	103914	-3.58	0.51	1.0000 
	-4	-2	3	96049	3943	106399	-3.58	0.75	1.0000 
	-2	4	-4	12887	829	9924	3.08	-0.08	1.0000 
	-2	4	4	10883	562	8166	3.08	0.28	1.0000 
	-4	2	4	12529	1389	9607	3.08	0.12	1.0000 
	-2	-4	4	12422	739	9638	2.93	0.8	1.0000 
	-2	4	-4	12523	917	9605	3.08	-0.08	1.0000 
	-4	-2	4	13979	1479	11014	2.93	0.66	1.0000 
	-4	-2	4	14509	1373	11485	2.93	0.66	1.0000 
	-4	2	4	13866	871	10782	3.08	0.12	1.0000 
	-2	4	-4	12519	689	9601	3.08	-0.08	1.0000 
	-4	-2	-4	15979	948	12818	2.91	-0.7	1.0000 
	-4	2	-4	13761	1765	10702	3.06	-0.25	1.0000 
	-2	-4	-4	11608	867	8929	2.92	-0.6	1.0000 
	2	-4	4	10976	633	8256	3.08	0.08	1.0000 
	4	-2	4	14830	995	11647	3.06	0.25	1.0000 
	4	2	4	15831	874	12685	2.91	0.7	1.0000 
	2	4	4	11963	818	9241	2.92	0.6	1.0000 
	-2	4	-4	11666	614	8856	3.08	-0.08	1.0000 
	-2	4	4	15070	1463	11838	3.08	0.28	1.0000 
	-2	-4	4	12000	777	9267	2.93	0.8	1.0000 
	-4	2	4	13270	1623	10257	3.08	0.12	1.0000 
	-2	4	-4	12313	1148	9421	3.08	-0.08	1.0000 
	-4	-2	4	13326	1292	10435	2.93	0.66	1.0000 
	-2	4	-5	100399	4075	131042	-9.98	0.56	1.0000 
	-2	4	5	97007	4256	127879	-10.21	-0.35	1.0000 
	-2	-4	5	93646	4336	126604	11.07	1.93	1.0000 
	-4	2	5	93415	4321	123301	-10.07	-0.44	1.0000 
	-4	-2	5	95406	5024	128437	11	2.08	1.0000 
	-2	4	-5	97929	4045	128218	-9.98	0.56	1.0000 
	-4	2	5	94795	4354	124886	-10.07	-0.44	1.0000 
	-4	-2	5	92797	4373	125405	11	2.08	1.0000 
	-2	4	-5	95405	3950	125328	-9.98	0.56	1.0000 
	-4	-2	-5	93006	4464	126124	11.15	-1.84	1.0000 
	-4	2	-5	97371	4461	128006	-10.11	0.49	1.0000 
	-2	-4	-5	94048	4242	127128	11.09	-2.01	1.0000 
	2	-4	5	89064	3680	118044	-9.98	-0.56	1.0000 
	4	-2	5	94781	4255	125034	-10.11	-0.49	1.0000 
	4	2	5	93362	4866	126538	11.15	1.84	1.0000 
	2	4	5	95474	4243	128786	11.09	2.01	1.0000 
	-2	4	-5	96639	3959	126741	-9.98	0.56	1.0000 
	-2	4	5	95782	4235	126473	-10.21	-0.35	1.0000 
	-2	-4	5	91813	4220	124471	11.07	1.93	1.0000 
	-4	2	5	91258	4254	120821	-10.07	-0.44	1.0000 
	-4	-2	5	90909	4330	123208	11	2.08	1.0000 
	-2	4	-5	95166	3948	125053	-9.98	0.56	1.0000 
	-2	4	6	169	511	5157	-18.03	2.83	1.0000 
	-2	-4	6	97	1216	6853	-19.22	3.41	1.0000 
	-4	-2	6	166	794	6090	-19.23	3.39	1.0000 
	-4	2	6	68	1494	6207	-18.09	2.59	1.0000 
	-4	-2	6	101	1169	6778	-19.23	3.39	1.0000 
	-2	4	-6	214	696	4820	-18.08	-2.49	1.0000 
	-2	-4	-6	364	783	4930	-19.28	-2.87	1.0000 
	2	-4	6	224	634	4770	-18.08	2.49	1.0000 
	2	4	6	60	642	7984	-19.28	2.87	1.0000 
	-2	4	6	65	1855	6861	-18.03	2.83	1.0000 
	-2	-4	6	113	1145	6619	-19.22	3.41	1.0000 
	-4	-2	6	252	664	5527	-19.23	3.39	1.0000 
	-4	2	6	106	1435	5652	-18.09	2.59	1.0000 
	-2	4	7	103776	3941	113138	3.05	2.09	1.0000 
	-2	-4	7	130746	4245	131090	-0.1	0.21	1.0000 
	-4	-2	7	132417	4666	133063	-0.19	0.28	1.0000 
	-4	2	7	120090	4602	130438	3.14	2.04	1.0000 
	-4	-2	7	133807	4694	134457	-0.19	0.28	1.0000 
	-4	2	-7	121633	4644	132015	3.12	-2.18	1.0000 
	-2	4	-7	124425	4357	135263	3.23	-2.21	1.0000 
	-4	-2	-7	128189	4607	128504	-0.09	-0.12	1.0000 
	4	-2	7	116347	4345	126503	3.12	2.18	1.0000 
	2	-4	7	120131	4121	130782	3.23	2.21	1.0000 
	2	4	7	130086	4385	130656	-0.17	0.15	1.0000 
	-2	4	7	115471	4329	125339	3.05	2.09	1.0000 
	-4	2	7	115978	4472	126149	3.14	2.04	1.0000 
	-2	-4	7	130568	4257	130912	-0.1	0.21	1.0000 
	-4	-2	7	131499	4646	132143	-0.19	0.28	1.0000 
	-2	4	8	41908	2041	47853	3.08	1.21	1.0000 
	-2	-4	8	47571	2310	53023	2.68	0.77	1.0000 
	-4	-2	8	49243	2623	54883	2.72	0.88	1.0000 
	-4	2	8	46627	3074	53079	3.19	0.79	1.0000 
	-2	4	-8	48482	2293	55018	3.18	-0.59	1.0000 
	-4	-2	-8	44617	3321	49755	2.61	-0.72	1.0000 
	2	-4	8	48814	2125	55372	3.18	0.59	1.0000 
	2	4	8	49271	2198	54788	2.67	0.83	1.0000 
	-2	4	8	41880	2060	47823	3.08	1.21	1.0000 
	-2	-4	8	49316	2377	54865	2.68	0.77	1.0000 
	-4	2	8	47210	3109	53701	3.19	0.79	1.0000 
	-4	-2	8	50019	2753	55702	2.72	0.88	1.0000 
	-2	4	9	25186	1377	24897	0.15	0.89	1.0000 
	-4	2	9	28355	1809	28147	0.09	0.82	1.0000 
	-4	-2	9	36929	1729	28280	-5.26	1.33	1.0000 
	-4	-2	-9	33953	2690	25829	-5.16	-1.39	1.0000 
	-2	4	-9	25920	2887	25673	0.11	-1.04	1.0000 
	2	-4	9	29684	1275	29421	0.11	1.04	1.0000 
	-2	4	9	23907	1344	23625	0.15	0.89	1.0000 
	-4	-2	9	35538	1642	27064	-5.26	1.33	1.0000 
	-4	2	9	26893	1734	26690	0.09	0.82	1.0000 
	-2	4	10	16956	1089	16255	0.6	0.77	1.0000 
	-4	2	10	19908	1743	19153	0.59	0.64	1.0000 
	-4	-2	10	21412	1407	20368	0.82	-0.69	1.0000 
	-2	4	-10	20099	1554	19389	0.55	-0.56	1.0000 
	-4	-2	-10	24910	1507	23754	0.84	0.52	1.0000 
	4	2	10	17556	1130	16586	0.84	-0.52	1.0000 
	-2	4	10	15535	1047	14864	0.6	0.77	1.0000 
	-4	-2	10	21463	1403	20418	0.82	-0.69	1.0000 
	-4	2	10	19823	1916	19070	0.59	0.64	1.0000 
	-2	4	11	53139	2351	50005	-1.51	-0.66	1.0000 
	-4	2	11	45767	3319	42778	-1.56	-0.42	1.0000 
	-4	-2	11	54240	2556	46594	3.79	0.36	1.0000 
	-2	4	-11	49331	2800	46196	-1.58	0.36	1.0000 
	-4	-2	-11	48950	2164	41543	3.88	-0.4	1.0000 
	2	-4	-11	50260	2147	47213	-1.51	0.66	1.0000 
	4	2	11	49375	2092	41935	3.88	0.4	1.0000 
	-2	4	11	53143	2367	50009	-1.51	-0.66	1.0000 
	-2	-4	11	57526	4438	49577	3.82	0.37	1.0000 
	-4	-2	11	55581	2620	47837	3.79	0.36	1.0000 
	-4	2	11	46754	3460	43732	-1.56	-0.42	1.0000 
	-4	-2	12	41474	2756	36306	-2.89	-1.41	1.0000 
	-4	2	12	39628	2189	34359	-3.03	-1.46	1.0000 
	-2	4	-12	42184	2162	36678	-3.06	1.49	1.0000 
	2	-4	12	41689	1964	36217	-3.06	-1.49	1.0000 
	-2	4	12	41228	2924	35877	-3.01	-1.49	1.0000 
	-2	-4	12	41191	1701	35989	-2.92	-1.23	1.0000 
	-4	-2	12	40801	2453	35676	-2.89	-1.41	1.0000 
	-4	2	12	41194	2290	35819	-3.03	-1.46	1.0000 
	-2	4	13	42017	2804	40621	0.76	0.11	1.0000 
	-2	-4	13	43085	2466	40324	-1.5	-0.21	1.0000 
	-4	-2	13	41946	3251	39169	-1.53	-0.06	1.0000 
	-4	2	13	39223	2938	37882	0.75	0.29	1.0000 
	2	-4	-13	37906	2148	36580	0.76	-0.11	1.0000 
	4	2	13	44354	2177	41482	-1.54	-0.17	1.0000 
	2	-4	13	42448	2101	41148	0.7	0.29	1.0000 
	-2	4	13	40245	3090	38879	0.76	0.11	1.0000 
	-2	-4	13	42120	1792	39390	-1.5	-0.21	1.0000 
	-4	2	13	39224	2854	37883	0.75	0.29	1.0000 
	-4	-2	13	44379	2301	41521	-1.53	-0.06	1.0000 
	-2	-4	14	62952	2752	58608	1.97	-0.72	1.0000 
	-4	-2	14	61535	2726	57294	1.95	-0.84	1.0000 
	-4	2	14	59235	3541	53967	2.46	-0.28	1.0000 
	-4	-2	-14	63843	2919	59410	2	0.78	1.0000 
	-2	4	-14	63626	2760	58244	2.42	0.27	1.0000 
	2	4	-14	65269	2695	60845	1.97	0.72	1.0000 
	4	2	14	61863	2832	57500	2	-0.78	1.0000 
	-2	-4	14	63412	3075	59052	1.97	-0.72	1.0000 
	-4	2	14	59344	3668	54071	2.46	-0.28	1.0000 
	-4	-2	14	62232	2776	57967	1.95	-0.84	1.0000 
	-2	4	15	10278	2948	9551	-0.82	-1.07	1.0000 
	-2	-4	15	9378	1991	9599	-0.25	0.02	1.0000 
	-4	2	15	13720	3213	12926	-0.77	-1.04	1.0000 
	-4	-2	15	11589	2438	11841	-0.26	0.1	1.0000 
	-2	4	-15	9759	2567	9074	-0.79	0.96	1.0000 
	-4	-2	-15	9557	2600	9752	-0.22	-0.12	1.0000 
	2	4	-15	10062	2463	10291	-0.25	-0.02	1.0000 
	4	2	15	11457	2821	11671	-0.22	0.12	1.0000 
	2	-4	15	7880	2356	7264	-0.79	-0.96	1.0000 
	-2	4	15	10771	3301	10027	-0.82	-1.07	1.0000 
	-2	-4	15	11218	2157	11460	-0.25	0.02	1.0000 
	-4	-2	15	11162	1354	11409	-0.26	0.1	1.0000 
	-4	2	15	10202	2284	9516	-0.77	-1.04	1.0000 
	-2	4	16	44198	3420	41232	-1.57	-0.99	1.0000 
	-2	-4	16	46174	2612	43806	-1.23	-0.34	1.0000 
	-4	2	16	44505	2989	41502	-1.59	-0.92	1.0000 
	-4	-2	16	47469	3610	44930	-1.3	-0.32	1.0000 
	-4	-2	-16	43117	3411	40816	-1.24	0.34	1.0000 
	-2	4	-16	42890	2717	39948	-1.59	0.85	1.0000 
	2	4	-16	47934	2708	45520	-1.23	0.34	1.0000 
	2	-4	16	44709	2634	41705	-1.59	-0.85	1.0000 
	4	2	16	46363	3708	43976	-1.24	-0.34	1.0000 
	-2	4	16	43999	3594	41040	-1.57	-0.99	1.0000 
	-2	-4	16	44980	4150	42643	-1.23	-0.34	1.0000 
	-4	-2	16	44947	2979	42478	-1.3	-0.32	1.0000 
	-4	2	16	43985	2964	41000	-1.59	-0.92	1.0000 
	-2	-4	17	14487	3897	14773	-0.26	-0.17	1.0000 
	-2	4	17	19281	4620	17199	-1.7	0.91	1.0000 
	-4	2	17	23198	3900	20985	-1.64	0.73	1.0000 
	-4	-2	17	19854	1979	20196	-0.26	-0.36	1.0000 
	-4	-2	-17	15324	4809	15573	-0.21	0.32	1.0000 
	-2	4	-17	16653	3767	14745	-1.68	-0.79	1.0000 
	2	4	-17	15671	1282	15969	-0.26	0.17	1.0000 
	4	2	17	19717	3870	20000	-0.21	-0.32	1.0000 
	2	-4	17	17949	2442	15966	-1.68	0.79	1.0000 
	-2	-4	17	15428	2405	15724	-0.26	-0.17	1.0000 
	-2	4	17	23418	4337	21119	-1.7	0.91	1.0000 
	-4	2	17	22125	3904	19965	-1.64	0.73	1.0000 
	-4	-2	17	19853	4162	20195	-0.26	-0.36	1.0000 
	-2	-4	18	46283	3142	45176	0.57	0.08	1.0000 
	-2	4	18	54509	3944	54281	0.11	-0.17	1.0000 
	-4	2	18	55126	4073	54895	0.11	-0.11	1.0000 
	-4	-2	-18	52159	4543	51077	0.52	-0.13	1.0000 
	-4	2	-18	54134	3608	53908	0.11	0.14	1.0000 
	-2	4	-18	51612	3422	51413	0.1	0.09	1.0000 
	2	4	-18	60554	4418	59287	0.57	-0.08	1.0000 
	4	-2	18	52765	3372	52542	0.11	-0.14	1.0000 
	2	-4	18	53185	3292	52983	0.1	-0.09	1.0000 
	4	2	18	54532	4420	53426	0.52	0.13	1.0000 
	-2	-4	18	59271	3427	58018	0.57	0.08	1.0000 
	-4	2	18	55957	3996	55724	0.11	-0.11	1.0000 
	-2	4	19	53772	5536	58067	-2.02	0.27	1.0000 
	-4	2	19	60445	4565	65028	-2.04	0.31	1.0000 
	-4	2	-19	51605	4977	55815	-2.02	-0.36	1.0000 
	-4	-2	-19	61888	4716	57543	-1.96	-0.3	1.0000 
	-2	4	-19	50519	4122	54711	-2.04	-0.41	1.0000 
	2	4	-19	74067	6117	69474	-1.89	-0.26	1.0000 
	4	-2	19	55393	4501	59752	-2.02	0.36	1.0000 
	2	-4	19	54727	4003	59087	-2.04	0.41	1.0000 
	4	2	19	63003	4595	58619	-1.96	0.3	1.0000 
	-2	4	19	57633	5519	62077	-2.02	0.27	1.0000 
	-4	2	19	56621	4499	61060	-2.04	0.31	1.0000 
	-2	-4	20	35996	2277	35720	-0.17	0.36	1.0000 
	-2	4	20	22185	1833	22668	0.36	-0.24	1.0000 
	-4	2	20	34795	7652	35395	0.36	-0.23	1.0000 
	-4	-2	-20	28016	7475	27747	-0.19	-0.44	1.0000 
	-4	2	-20	31201	3361	31824	0.39	0.15	1.0000 
	-2	4	-20	27134	3892	27687	0.37	0.13	1.0000 
	2	4	-20	38686	3583	38400	-0.17	-0.36	1.0000 
	4	-2	20	31919	3023	32549	0.39	-0.15	1.0000 
	2	-4	20	36773	5320	37416	0.37	-0.13	1.0000 
	4	2	20	33063	3096	32771	-0.19	0.44	1.0000 
	-2	-4	20	34235	5391	33966	-0.17	0.36	1.0000 
	-2	4	20	35789	3610	36403	0.36	-0.24	1.0000 
	-4	2	20	35288	6622	35893	0.36	-0.23	1.0000 
	-4	-2	-20	29466	2426	29190	-0.19	-0.44	1.0000 
	2	-4	20	25802	1494	26341	0.37	-0.13	1.0000 
	-2	-4	21	75691	8639	78728	-1.25	1.55	1.0000 
	-2	4	21	81960	8695	73952	-3.18	-0.14	1.0000 
	-4	2	21	93375	14511	84730	-3.21	-0.05	1.0000 
	-4	2	-21	79349	9645	71511	-3.16	0.03	1.0000 
	-4	-2	-21	69678	9081	72711	-1.3	-1.6	1.0000 
	-2	4	-21	83621	8458	75466	-3.2	-0.06	1.0000 
	2	4	-21	75564	10805	78599	-1.25	-1.55	1.0000 
	4	-2	-21	87150	11898	78805	-3.21	0.05	1.0000 
	4	-2	21	86775	9497	78570	-3.16	-0.03	1.0000 
	2	-4	21	83773	10774	75610	-3.2	0.06	1.0000 
	4	2	21	73848	9272	76971	-1.3	1.6	1.0000 
	-4	2	21	93099	9312	84467	-3.21	-0.05	1.0000 
	-2	4	21	85675	8853	77483	-3.18	-0.14	1.0000 
	-2	-4	21	66188	11430	69027	-1.25	1.55	1.0000 
	-4	-2	-21	64185	8130	67095	-1.3	-1.6	1.0000 
	2	-4	-21	63141	5973	56137	-3.18	0.14	1.0000 
	4	2	-21	67965	7497	70790	-1.23	-1.63	1.0000 
	4	-2	-21	73580	8055	65929	-3.21	0.05	1.0000 
	2	-4	21	81464	7782	73417	-3.2	0.06	1.0000 
	-2	-4	-21	52873	6620	55481	-1.28	-1.66	1.0000 
	-2	4	22	8200	3470	9195	-1.16	-0.8	1.0000 
	-2	-4	22	7322	3455	6978	0.46	-0.5	1.0000 
	-4	2	22	16394	3243	17787	-1.16	-0.79	1.0000 
	-4	-2	-22	9656	2856	9277	0.44	0.47	1.0000 
	-4	2	-22	11858	3323	13028	-1.14	0.74	1.0000 
	-2	4	-22	10620	2934	11728	-1.14	0.72	1.0000 
	2	-4	-22	14207	2364	15512	-1.16	0.8	1.0000 
	2	4	-22	13514	2494	13047	0.46	0.5	1.0000 
	4	-2	-22	16040	3829	17418	-1.16	0.79	1.0000 
	4	-2	22	14008	2429	15278	-1.14	-0.74	1.0000 
	2	-4	22	11950	2406	13124	-1.14	-0.72	1.0000 
	4	2	22	14773	3485	14305	0.44	-0.47	1.0000 
	-2	4	22	15568	2985	16933	-1.16	-0.8	1.0000 
	-2	-4	22	17786	2193	17251	0.46	-0.5	1.0000 
	-4	2	22	16450	2678	17846	-1.16	-0.79	1.0000 
	-4	2	-22	11054	2599	12184	-1.14	0.74	1.0000 
	-4	-2	-22	12076	2610	11653	0.44	0.47	1.0000 
	2	-4	-22	13086	2271	14339	-1.16	0.8	1.0000 
	4	-2	-22	12060	2352	13257	-1.16	0.79	1.0000 
	4	2	-22	14173	2365	13716	0.44	0.33	1.0000 
	2	-4	22	16656	2586	18039	-1.14	-0.72	1.0000 
	-4	2	-22	14017	1838	15287	-1.14	0.74	1.0000 
	-4	-2	-22	18273	2172	17752	0.44	0.47	1.0000 
	2	-4	-22	12850	1939	14092	-1.16	0.8	1.0000 
	-2	-4	23	53558	8851	59693	2.87	-0.43	1.0000 
	-2	4	23	88837	13133	90782	-0.75	-1.08	1.0000 
	-4	2	23	81058	12248	82995	-0.78	-1.01	1.0000 
	-4	-2	-23	60563	13989	67080	2.87	0.47	1.0000 
	-4	2	-23	72561	12971	74248	-0.72	1.12	1.0000 
	-2	4	-23	66148	12600	67832	-0.75	1.07	1.0000 
	2	4	-23	57882	14097	64253	2.87	0.43	1.0000 
	2	-4	-23	76200	12699	78000	-0.75	1.08	1.0000 
	4	2	-23	70324	16729	77286	2.85	0.41	1.0000 
	4	-2	-23	89513	13555	91549	-0.78	1.01	1.0000 
	4	-2	23	74781	12677	76494	-0.72	-1.12	1.0000 
	2	-4	23	66188	11829	67872	-0.75	-1.07	1.0000 
	4	2	23	71661	13910	78736	2.87	-0.47	1.0000 
	-2	4	23	71343	15334	73084	-0.75	-1.08	1.0000 
	-2	-4	23	65684	12185	72461	2.87	-0.43	1.0000 
	-4	2	23	81337	12261	83278	-0.78	-1.01	1.0000 
	-4	2	-23	80718	11797	82498	-0.72	1.12	1.0000 
	-4	-2	-23	75032	11768	82268	2.87	0.47	1.0000 
	2	4	-23	59175	10009	65615	2.87	0.43	1.0000 
	4	2	-23	74599	11594	81765	2.85	0.41	1.0000 
	4	-2	-23	75423	11220	77291	-0.78	1.01	1.0000 
	2	-4	-23	73885	11193	75657	-0.75	1.08	1.0000 
	2	-4	23	84492	12679	86397	-0.75	-1.07	1.0000 
	-4	-2	23	55592	8812	61800	2.85	-0.41	1.0000 
	2	-4	-23	69625	10117	71345	-0.75	1.08	1.0000 
	-4	2	-23	76616	12234	78350	-0.72	1.12	1.0000 
	-4	-2	-23	80503	13063	87993	2.87	0.47	1.0000 
	2	4	-23	41660	8606	47090	2.87	0.43	1.0000 
	-2	4	24	1935	1171	1339	1.65	-0.5	1.0000 
	-2	-4	24	1306	831	897	1.37	0.55	1.0000 
	-4	2	24	4137	684	3255	1.63	-0.52	1.0000 
	-4	-2	24	4384	768	3602	1.39	0.69	1.0000 
	-4	2	-24	4058	880	3176	1.64	0.42	1.0000 
	-4	-2	-24	2389	810	1829	1.35	-0.29	1.0000 
	-2	4	-24	2365	486	1707	1.63	0.43	1.0000 
	2	4	-24	2954	637	2323	1.37	-0.55	1.0000 
	2	-4	-24	3543	742	2719	1.65	0.5	1.0000 
	4	2	-24	3845	784	3114	1.39	-0.69	1.0000 
	4	-2	-24	4289	886	3390	1.63	0.52	1.0000 
	4	-2	24	3637	787	2805	1.64	-0.42	1.0000 
	4	2	24	3898	827	3173	1.35	0.29	1.0000 
	2	-4	24	2586	560	1896	1.63	-0.43	1.0000 
	-2	-4	24	3838	628	3115	1.37	0.55	1.0000 
	-2	4	24	3742	886	2894	1.65	-0.5	1.0000 
	-4	-2	24	4432	671	3645	1.39	0.69	1.0000 
	-4	2	24	4080	724	3205	1.63	-0.52	1.0000 
	-4	2	-24	3864	809	3005	1.64	0.42	1.0000 
	-4	-2	-24	2885	939	2266	1.35	-0.29	1.0000 
	2	4	-24	3495	598	2806	1.37	-0.55	1.0000 
	4	-2	-24	4316	775	3414	1.63	0.52	1.0000 
	4	2	-24	3847	814	3116	1.39	-0.69	1.0000 
	2	-4	24	5162	827	4167	1.63	-0.43	1.0000 
	-4	-2	24	2666	417	2062	1.39	0.69	1.0000 
	-4	-2	-24	3249	619	2590	1.35	-0.29	1.0000 
	-4	2	-24	3553	523	2731	1.64	0.42	1.0000 
	2	4	-24	2141	319	1609	1.37	-0.55	1.0000 
	-2	-4	25	434	2119	1887	-5.23	1.18	1.0000 
	-4	-2	25	1878	2182	4416	-5.23	1.11	1.0000 
	-4	2	-25	8161	1376	6906	-1.59	-0.23	1.0000 
	2	4	-25	2113	1821	4767	-5.23	-1.18	1.0000 
	2	-4	-25	7919	1698	6678	-1.6	-0.24	1.0000 
	4	2	-25	3993	1718	7470	-5.23	-1.11	1.0000 
	4	-2	25	7668	1979	6453	-1.59	0.23	1.0000 
	-2	-4	25	3499	895	6775	-5.23	1.18	1.0000 
	-4	-2	25	5438	1053	9412	-5.23	1.11	1.0000 
	-4	2	-25	9164	1479	7831	-1.59	-0.23	1.0000 
	-4	-2	-25	3583	1957	6918	-5.26	-1.18	1.0000 
	2	4	-25	1886	1537	4420	-5.23	-1.18	1.0000 
	4	2	-25	5658	1302	9701	-5.23	-1.11	1.0000 
	4	-2	-25	10814	1726	9334	-1.62	-0.29	1.0000 
	-4	-2	25	2583	1585	5476	-5.23	1.11	1.0000 
	-4	2	-25	11561	930	10058	-1.59	-0.23	1.0000 
	-4	-2	-25	7386	1107	11956	-5.26	-1.18	1.0000 
	2	4	-25	3051	1725	6143	-5.23	-1.18	1.0000 
	4	-2	-25	12903	848	11281	-1.62	-0.29	1.0000 
	-4	2	-26	211	144	312	-0.64	-0.47	1.0000 
	-4	-2	-26	227	180	368	-0.92	0.06	1.0000 
	-2	-4	-26	271	172	420	-0.89	0.01	1.0000 
	-2	4	-26	107	107	178	-0.62	-0.4	1.0000 
	2	4	-26	118	116	232	-0.96	-0.09	1.0000 
	4	-2	-26	450	217	584	-0.62	-0.3	1.0000 
	4	2	-26	280	142	442	-0.94	-0.16	1.0000 
	-4	-2	26	107	113	214	-0.94	0.16	1.0000 
	-2	4	-26	107	91	178	-0.62	-0.4	1.0000 
	-4	2	-26	518	236	672	-0.64	-0.47	1.0000 
	-4	-2	-26	392	202	571	-0.92	0.06	1.0000 
	2	4	-26	403	219	597	-0.96	-0.09	1.0000 
	4	-2	-26	454	219	588	-0.62	-0.3	1.0000 
	-4	2	-27	7838	2573	9244	-1.72	-0.74	1.0000 
	-2	-4	-27	13212	2761	9836	-3.47	-0.64	1.0000 
	-2	4	-27	4470	2141	5553	-1.74	-0.84	1.0000 
	-4	-2	-27	12945	2920	9611	-3.46	-0.63	1.0000 
	2	4	-27	13051	1909	9665	-3.5	-0.68	1.0000 
	4	-2	-27	9579	2620	11202	-1.8	-0.84	1.0000 
	-4	-2	27	7309	1491	4829	-3.52	0.69	1.0000 
	-2	-4	-27	15238	2246	11594	-3.47	-0.64	1.0000 
	-2	4	-27	4185	1651	5234	-1.74	-0.84	1.0000 
	-4	-2	-27	17200	2461	13320	-3.46	-0.63	1.0000 
	-4	2	-27	9651	2066	11207	-1.72	-0.74	1.0000 
	2	4	-27	10673	1481	7634	-3.5	-0.68	1.0000 
	4	-2	-27	10532	2031	12232	-1.8	-0.84	1.0000 
	-4	2	-28	353	208	482	-0.76	-0.91	1.0000 
	-4	-2	-28	958	296	770	1.19	1.48	1.0000 
	-2	-4	-28	928	294	737	1.21	1.49	1.0000 
	-2	4	-28	237	165	342	-0.76	-0.85	1.0000 
	2	4	-28	853	215	664	1.15	1.34	1.0000 
	2	-4	-28	576	247	746	-0.77	-0.86	1.0000 
	4	-2	-28	948	369	1165	-0.77	-0.8	1.0000 
	-2	-4	28	879	222	688	1.15	-1.34	1.0000 
	-2	-4	-28	1025	298	827	1.21	1.49	1.0000 
	-4	2	-28	427	217	570	-0.76	-0.91	1.0000 
	-2	4	-28	141	103	220	-0.76	-0.85	1.0000 
	-4	-2	-28	1129	336	929	1.19	1.48	1.0000 
	2	4	-28	993	259	793	1.15	1.34	1.0000 
	4	-2	-28	558	250	724	-0.77	-0.8	1.0000 
	-4	-2	-29	4191	1470	3850	0.57	-0.84	1.0000 
	-4	2	-29	4941	1370	3613	-2.25	-0.09	1.0000 
	-2	-4	-29	4323	1437	3973	0.58	-0.88	1.0000 
	2	4	-29	4141	1171	3807	0.56	-0.94	1.0000 
	2	-4	-29	6289	1517	4764	-2.28	-0.08	1.0000 
	4	-2	-29	6375	1665	4830	-2.29	-0.09	1.0000 
	-2	-4	29	5063	1435	4695	0.56	0.94	1.0000 
	-2	-4	-29	5311	1525	4924	0.58	-0.88	1.0000 
	-4	2	-29	5740	1314	4300	-2.25	-0.09	1.0000 
	-2	4	-29	3310	742	2238	-2.26	-0.09	1.0000 
	-4	-2	-29	6304	813	5887	0.57	-0.84	1.0000 
	2	-4	-29	5403	1185	3997	-2.28	-0.08	1.0000 
	2	4	-29	3339	917	3038	0.56	-0.94	1.0000 
	4	-2	-29	6211	1438	4688	-2.29	-0.09	1.0000 
	-2	4	-30	1205	637	1521	0.92	-0.6	1.0000 
	-4	-2	-30	4153	1510	3820	-0.57	0.56	1.0000 
	-4	2	-30	4511	1504	5118	0.92	-0.66	1.0000 
	-2	-4	-30	4091	1386	3763	-0.56	0.5	1.0000 
	2	-4	-30	3508	1168	4026	0.89	-0.65	1.0000 
	2	4	-30	4049	1222	3729	-0.55	0.43	1.0000 
	4	-2	-30	4007	1372	4555	0.89	-0.6	1.0000 
	-2	-4	30	4884	1144	4532	-0.55	-0.43	1.0000 
	-4	-2	-30	5702	1384	5311	-0.57	0.56	1.0000 
	-2	-4	-30	4028	1149	3703	-0.56	0.5	1.0000 
	-2	4	-30	1721	712	2097	0.92	-0.6	1.0000 
	-4	2	-30	3777	1170	4334	0.92	-0.66	1.0000 
	2	4	-30	3651	1082	3347	-0.55	0.43	1.0000 
	2	-4	-30	3080	1123	3566	0.89	-0.65	1.0000 
	4	-2	-30	4272	1219	4837	0.89	-0.6	1.0000 
	-4	-2	-31	3	264	-33	-0.32	-0.17	1.0000 
	-2	4	-31	57	134	-24	1.67	0.02	1.0000 
	-4	2	-31	55	210	-6	1.64	0.03	1.0000 
	-2	-4	-31	3	239	-88	-0.31	-0.18	1.0000 
	4	-2	-31	0	163	61	1.63	0.01	1.0000 
	2	-4	-31	55	177	217	1.62	0.01	1.0000 
	2	4	-31	19	59	36	-0.35	-0.18	1.0000 
	-2	-4	31	3	161	-1	-0.35	0.18	1.0000 
	-2	-4	-31	3	264	-170	-0.31	-0.18	1.0000 
	-4	-2	-31	3	304	-56	-0.32	-0.17	1.0000 
	-2	4	-31	57	128	-73	1.67	0.02	1.0000 
	-4	2	-31	55	243	-105	1.64	0.03	1.0000 
	2	-4	-31	0	129	57	1.62	0.01	1.0000 
	2	4	-31	3	151	-29	-0.35	-0.18	1.0000 
	4	-2	-31	52	162	213	1.63	0.01	1.0000 
	-4	-2	-32	6051	1871	5495	0.8	-0.26	1.0000 
	-4	2	-32	6241	1976	6417	-0.26	-0.86	1.0000 
	2	4	-32	5289	1424	4770	0.8	-0.25	1.0000 
	-2	-4	-32	7101	2061	6493	0.8	-0.32	1.0000 
	4	-2	-32	7026	2124	7227	-0.28	-0.74	1.0000 
	2	-4	-32	8011	2362	8210	-0.26	-0.9	1.0000 
	-4	-2	-32	6739	1768	6152	0.8	-0.26	1.0000 
	-2	-4	-32	6472	1675	5892	0.8	-0.32	1.0000 
	-2	4	-32	1876	907	1973	-0.28	-0.74	1.0000 
	2	4	-32	4755	1204	4264	0.8	-0.25	1.0000 
	2	-4	-32	6043	1704	6213	-0.26	-0.9	1.0000 
	4	-2	-32	6735	1901	6931	-0.28	-0.74	1.0000 
	-4	2	-33	656	360	783	-0.54	-0.2	1.0000 
	-4	-2	-33	918	334	661	-1.06	0.53	1.0000 
	-2	4	-33	248	161	332	-0.56	-0.16	1.0000 
	2	4	-33	887	276	630	-1.07	0.42	1.0000 
	-2	-4	-33	1349	446	1035	-1.06	0.57	1.0000 
	2	-4	-33	977	489	1134	-0.55	-0.21	1.0000 
	4	-2	-33	1220	628	1400	-0.56	-0.16	1.0000 
	-2	-4	-33	938	312	678	-1.06	0.57	1.0000 
	-2	4	-33	148	120	214	-0.56	-0.16	1.0000 
	-4	-2	-33	861	292	612	-1.06	0.53	1.0000 
	2	4	-33	476	148	292	-1.07	0.42	1.0000 
	2	-4	-33	579	342	701	-0.55	-0.21	1.0000 
	4	-2	-33	897	497	1052	-0.56	-0.16	1.0000 
	-4	-2	-34	3700	1445	3772	0.13	-0.07	1.0000 
	-4	2	-34	4220	1441	4343	0.21	0.06	1.0000 
	-2	-4	-34	3480	1161	3531	0.09	-0.03	1.0000 
	2	4	-34	3557	1095	3632	0.14	0.07	1.0000 
	2	-4	-34	4961	1525	5092	0.21	0.08	1.0000 
	4	-2	-34	5783	1786	5929	0.22	0.1	1.0000 
	-4	-2	-34	4383	1338	4461	0.13	-0.07	1.0000 
	-2	-4	-34	3199	966	3248	0.09	-0.03	1.0000 
	4	-2	-34	5730	1684	5875	0.22	0.1	1.0000 
	2	-4	-34	4083	1265	4202	0.21	0.08	1.0000 
	2	4	-34	2485	792	2548	0.14	0.07	1.0000 
	-2	-4	-35	13809	4245	14102	-0.25	0.5	1.0000 
	-4	-2	-35	12291	4064	12581	-0.26	0.52	1.0000 
	-4	2	-35	14223	3821	11903	-2.26	0.15	1.0000 
	2	-4	-35	19439	4871	16695	-2.27	0.16	1.0000 
	2	4	-35	6807	2857	7032	-0.27	0.54	1.0000 
	4	-2	-35	20040	4833	17235	-2.28	0.15	1.0000 
	4	2	-35	15764	4587	16093	-0.26	0.52	1.0000 
	-2	-4	-35	13274	3831	13561	-0.25	0.5	1.0000 
	2	4	-35	5506	1715	5708	-0.27	0.54	1.0000 
	2	-4	-35	17965	4298	15331	-2.27	0.16	1.0000 
	4	-2	-35	18910	4393	16188	-2.28	0.15	1.0000 
	-4	-2	-36	1249	479	1248	0.05	0.56	1.0000 
	-2	-4	-36	1788	647	1787	0.05	0.55	1.0000 
	-4	2	-36	1237	419	991	0.94	1.01	1.0000 
	2	-4	-36	1983	586	1678	0.94	1.05	1.0000 
	4	-2	-36	2788	843	2428	0.95	1.06	1.0000 
	4	2	-36	1978	715	1964	0.09	0.56	1.0000 
	-2	-4	-36	1238	471	1236	0.05	0.55	1.0000 
	2	-4	-36	1225	437	982	0.94	1.05	1.0000 
	4	-2	-36	2604	786	2255	0.95	1.06	1.0000 
	4	2	-36	2128	722	2113	0.09	0.56	1.0000 
	-3	4	0	134038	2915	79171	-18.76	-0.19	1.0000 
	-4	-3	0	128624	3090	75971	-18.39	-0.21	1.0000 
	-3	-4	0	130662	2822	77571	-18.37	-0.07	1.0000 
	-3	4	0	131181	2801	76979	-18.76	-0.19	1.0000 
	-4	-3	0	127008	3063	74730	-18.39	-0.21	1.0000 
	-3	-4	0	127538	2730	75168	-18.37	-0.07	1.0000 
	-3	4	0	124795	2651	72106	-18.76	-0.19	1.0000 
	-3	-4	0	122784	2630	71529	-18.37	-0.07	1.0000 
	-4	-3	0	123255	2901	71858	-18.39	-0.21	1.0000 
	-3	4	-1	64756	1856	47965	7.86	-2.33	1.0000 
	-3	4	1	65843	2099	49131	7.74	2.09	1.0000 
	-3	-4	1	62071	2218	47962	-6.72	-1.82	1.0000 
	-3	-4	-1	61509	1926	47533	-6.67	1.45	1.0000 
	-4	-3	1	64418	2285	50156	-6.66	-1.77	1.0000 
	-4	-3	-1	62048	2288	47924	-6.72	1.49	1.0000 
	-3	4	-1	66533	1896	49497	7.86	-2.33	1.0000 
	-3	-4	1	63050	1940	48824	-6.72	-1.82	1.0000 
	-4	-3	-1	62445	2302	48273	-6.72	1.49	1.0000 
	-3	-4	-1	61393	1910	47431	-6.67	1.45	1.0000 
	-4	-3	1	64295	2267	50047	-6.66	-1.77	1.0000 
	4	3	1	65983	2185	51391	-6.72	-1.49	1.0000 
	3	4	1	64933	1992	50550	-6.67	-1.45	1.0000 
	-3	4	-1	66922	1933	49833	7.86	-2.33	1.0000 
	-3	4	1	66893	2162	50039	7.74	2.09	1.0000 
	-3	-4	1	63925	1967	49595	-6.72	-1.82	1.0000 
	-4	-3	1	63954	2238	49746	-6.66	-1.77	1.0000 
	-3	4	2	75393	2322	61858	5.73	0.04	1.0000 
	-4	-3	2	75798	2784	57804	7.74	2.48	1.0000 
	-3	-4	2	75657	2368	57552	7.8	2.49	1.0000 
	-3	4	-2	70594	2176	57685	5.64	-0.46	1.0000 
	-3	-4	2	75637	2381	57535	7.8	2.49	1.0000 
	-3	4	-2	69721	2133	56896	5.64	-0.46	1.0000 
	-4	-3	2	76315	2810	58256	7.74	2.48	1.0000 
	-3	-4	-2	73888	2200	56367	7.63	-2.38	1.0000 
	-4	-3	-2	73982	2638	56336	7.68	-2.38	1.0000 
	3	4	2	75578	2330	57846	7.63	2.38	1.0000 
	4	3	2	75981	2343	58084	7.68	2.38	1.0000 
	-3	4	2	69478	2159	56511	5.73	0.04	1.0000 
	-3	4	-2	67647	2064	55024	5.64	-0.46	1.0000 
	-3	-4	2	74045	2250	56146	7.8	2.49	1.0000 
	-4	-3	2	72841	2502	55223	7.74	2.48	1.0000 
	-3	4	3	108660	4070	120390	3.84	0.02	1.0000 
	-3	4	-3	108335	3992	120413	3.96	0.25	1.0000 
	-3	-4	3	117064	4082	121063	-1.24	1.43	1.0000 
	-4	3	-3	110322	4289	122222	3.87	0.23	1.0000 
	-3	-4	3	115398	4014	119369	-1.24	1.43	1.0000 
	-3	4	-3	108948	3995	121059	3.96	0.25	1.0000 
	-4	3	-3	107854	4186	119623	3.87	0.23	1.0000 
	-3	-4	-3	111997	3983	115681	-1.17	-1.23	1.0000 
	-4	-3	-3	115269	4240	119097	-1.2	-1.26	1.0000 
	3	4	3	113164	3962	116868	-1.17	1.23	1.0000 
	4	3	3	113685	4248	117487	-1.2	1.26	1.0000 
	-3	4	3	106564	4018	118184	3.84	0.02	1.0000 
	-3	-4	3	114148	3993	118097	-1.24	1.43	1.0000 
	-4	3	-3	106665	4163	118371	3.87	0.23	1.0000 
	-3	4	-3	107078	3951	119087	3.96	0.25	1.0000 
	-3	-4	4	36082	2172	44266	4.53	0.09	1.0000 
	-3	4	-4	33237	2137	43573	5.83	-0.83	1.0000 
	-4	3	-4	33753	2544	44190	5.86	-0.46	1.0000 
	-3	-4	4	36373	1806	44588	4.53	0.09	1.0000 
	-3	4	-4	32968	1840	43264	5.83	-0.83	1.0000 
	-4	3	-4	32885	2480	43196	5.86	-0.46	1.0000 
	-3	-4	-4	35756	1880	44014	4.58	-0.05	1.0000 
	3	4	4	35328	1808	43539	4.58	0.05	1.0000 
	-3	-4	4	34218	1963	42199	4.53	0.09	1.0000 
	-3	4	-4	31913	2691	42055	5.83	-0.83	1.0000 
	-3	4	5	129926	4897	145599	-4.65	-0.78	1.0000 
	-3	-4	5	121930	4981	144246	6.77	-0.49	1.0000 
	-3	4	-5	131367	5523	147350	-4.71	0.87	1.0000 
	-4	3	-5	117383	4613	132470	-4.7	0.84	1.0000 
	-3	-4	5	113749	4746	135335	6.77	-0.49	1.0000 
	-3	4	-5	129592	4769	145470	-4.71	0.87	1.0000 
	-4	-3	-5	121645	5035	144182	6.83	0.79	1.0000 
	-3	-4	-5	119198	4806	141434	6.81	0.73	1.0000 
	-4	3	-5	130972	5038	146883	-4.7	0.84	1.0000 
	4	-3	5	130296	5154	146167	-4.7	-0.84	1.0000 
	4	3	5	115555	4728	137544	6.83	-0.79	1.0000 
	3	4	5	121130	4807	143538	6.81	-0.73	1.0000 
	-3	4	5	129593	4909	145246	-4.65	-0.78	1.0000 
	-3	-4	5	121028	4746	143265	6.77	-0.49	1.0000 
	-3	4	-5	131588	5396	147584	-4.71	0.87	1.0000 
	-3	4	6	10147	1491	16281	-5.95	0.27	1.0000 
	-3	-4	6	9086	1023	15338	-6.22	-1.78	1.0000 
	-3	4	-6	7301	977	12646	-5.98	-0.75	1.0000 
	-3	4	-6	7429	952	12814	-5.98	-0.75	1.0000 
	-4	-3	-6	10265	1154	16856	-6.18	2.16	1.0000 
	-4	3	-6	9351	2358	15316	-6	-0.48	1.0000 
	-3	-4	-6	12069	1681	19074	-6.11	2.22	1.0000 
	4	-3	6	10421	1728	16678	-6	0.48	1.0000 
	3	-4	6	7951	1068	13497	-5.98	0.75	1.0000 
	3	4	6	8069	1581	13930	-6.11	-2.22	1.0000 
	4	3	6	9664	1747	16082	-6.18	-2.16	1.0000 
	-3	-4	6	8978	1005	15197	-6.22	-1.78	1.0000 
	-3	4	7	128126	5479	153118	7.41	-0.82	1.0000 
	-3	-4	7	137687	5353	153527	-4.62	-1.11	1.0000 
	-4	3	-7	131560	5663	156911	7.42	0.84	1.0000 
	-3	4	-7	135831	5606	161221	7.33	0.81	1.0000 
	3	-4	7	133171	5370	158322	7.33	-0.81	1.0000 
	4	-3	7	125966	5303	150796	7.42	-0.84	1.0000 
	3	4	7	140359	5529	156124	-4.56	-0.9	1.0000 
	4	3	7	136485	6475	152151	-4.59	-0.97	1.0000 
	-3	-4	7	136610	5314	152390	-4.62	-1.11	1.0000 
	-3	4	8	23105	1282	16261	-5.5	-1.96	1.0000 
	-3	-4	8	21936	1777	18731	-2.49	-0.14	1.0000 
	-3	4	-8	24952	2225	17824	-5.5	2.05	1.0000 
	3	-4	8	24998	1473	17863	-5.5	-2.05	1.0000 
	4	3	8	22568	1227	19357	-2.46	-0.31	1.0000 
	-3	4	8	26878	2013	19457	-5.5	-1.96	1.0000 
	-3	-4	8	23872	2096	20523	-2.49	-0.14	1.0000 
	-3	4	9	32744	1859	35134	-1.41	-0.51	1.0000 
	-3	-4	9	33301	1854	33322	0.02	0.21	1.0000 
	-4	3	-9	33020	3329	35359	-1.36	0.64	1.0000 
	-3	4	-9	31519	2936	33757	-1.33	0.64	1.0000 
	3	-4	9	32835	1545	35119	-1.33	-0.64	1.0000 
	4	3	9	34366	2276	34469	0.07	0.3	1.0000 
	-3	4	9	34347	1929	36794	-1.41	-0.51	1.0000 
	-3	-4	9	35671	1936	35693	0.02	0.21	1.0000 
	-3	-4	10	3615	958	5414	2.98	-0.57	1.0000 
	-3	4	-10	940	1398	2845	5.03	0.62	1.0000 
	-4	3	-10	957	468	2852	4.98	0.4	1.0000 
	4	3	10	2882	1078	4530	3.02	-0.55	1.0000 
	-3	4	10	1076	1772	3050	4.97	-0.44	1.0000 
	-3	-4	10	3098	1033	4776	2.98	-0.57	1.0000 
	-3	-4	11	79469	3729	72729	2.69	0.58	1.0000 
	-3	4	-11	99390	3020	77536	-8.16	0.22	1.0000 
	-4	3	-11	90275	4413	69382	-8.21	0.19	1.0000 
	-4	-3	-11	82573	3348	75473	2.79	-0.32	1.0000 
	4	3	11	82212	3101	75128	2.79	0.32	1.0000 
	-3	-4	11	80768	3364	73972	2.69	0.58	1.0000 
	-3	4	11	97378	3430	75647	-8.2	-0.03	1.0000 
	-3	4	12	2267	2172	1614	1.63	0.57	1.0000 
	-4	3	12	5719	828	4621	1.68	0.41	1.0000 
	-4	-3	-12	5040	1994	4118	1.52	0.08	1.0000 
	-3	4	-12	4488	1311	3528	1.67	-0.38	1.0000 
	4	-3	12	4866	1897	3883	1.63	0.51	1.0000 
	-4	3	12	5688	913	4593	1.68	0.41	1.0000 
	-3	4	12	4434	1948	3501	1.63	0.57	1.0000 
	-3	-4	13	77618	4493	77759	0	1.42	1.0000 
	-3	4	-13	91108	3395	85328	2.18	-0.72	1.0000 
	4	3	13	80382	3412	80728	0.09	1.35	1.0000 
	-3	-4	13	76752	3809	76892	0	1.42	1.0000 
	-4	3	13	81974	3592	76654	2.11	0.57	1.0000 
	-4	-3	14	6323	1215	5439	-1.44	1.28	1.0000 
	-4	-3	-14	5088	1465	4249	-1.51	-1.22	1.0000 
	-3	4	-14	4435	854	2954	-2.89	-1.26	1.0000 
	4	3	14	5878	1245	4976	-1.51	1.22	1.0000 
	3	-4	14	4402	964	2927	-2.89	1.26	1.0000 
	-4	-3	14	5820	1216	4971	-1.44	1.28	1.0000 
	-4	3	14	6779	1246	4867	-2.93	1	1.0000 
	-3	4	15	23457	2255	26164	1.91	-0.34	1.0000 
	-4	3	15	22968	2279	25634	1.9	-0.56	1.0000 
	-4	-3	15	24028	2323	26010	-1.38	0.4	1.0000 
	-3	4	-15	20055	4193	22538	1.89	0.41	1.0000 
	3	-4	-15	21556	2006	24154	1.91	0.34	1.0000 
	-3	4	15	21159	2169	23734	1.91	-0.34	1.0000 
	-4	-3	15	21668	2387	23552	-1.38	0.4	1.0000 
	-4	3	15	20631	2191	23161	1.9	-0.56	1.0000 
	-3	4	16	10801	3360	10490	0.32	0.83	1.0000 
	-4	3	16	11202	2976	10844	0.36	0.74	1.0000 
	-3	-4	16	8445	2379	8234	0.24	0.72	1.0000 
	-4	-3	16	11252	2379	10963	0.29	0.62	1.0000 
	-4	3	-16	8654	2775	8348	0.35	-0.98	1.0000 
	-4	-3	-16	7823	2665	7653	0.2	-0.45	1.0000 
	-3	4	-16	7661	2446	7346	0.38	-0.88	1.0000 
	3	-4	-16	9871	2190	9573	0.32	-0.83	1.0000 
	4	3	16	9204	3040	9020	0.2	0.45	1.0000 
	3	-4	16	5017	1991	4760	0.38	0.88	1.0000 
	4	-3	16	7579	2579	7292	0.35	0.98	1.0000 
	-3	4	16	9588	2792	9294	0.32	0.83	1.0000 
	-4	-3	16	10993	1973	10708	0.29	0.62	1.0000 
	-3	-4	16	10808	1793	10571	0.24	0.72	1.0000 
	-4	3	16	8610	2408	8295	0.36	0.74	1.0000 
	-3	4	17	18050	4109	18929	0.72	-0.39	1.0000 
	-4	-3	17	20761	3044	21523	-0.59	-0.28	1.0000 
	-3	-4	17	14839	3786	15481	-0.58	-0.24	1.0000 
	-4	-3	-17	15753	4582	16410	-0.58	0.16	1.0000 
	-4	3	-17	18900	4504	19824	0.74	0.41	1.0000 
	-3	4	-17	13576	4876	14306	0.69	0.45	1.0000 
	3	4	-17	23454	2227	24259	-0.58	0.24	1.0000 
	3	-4	-17	18072	3111	18951	0.72	0.39	1.0000 
	4	3	17	18977	4558	19697	-0.58	-0.16	1.0000 
	3	-4	17	17342	3345	18167	0.69	-0.45	1.0000 
	4	-3	17	18587	2318	19504	0.74	-0.41	1.0000 
	-3	4	17	19339	4371	20248	0.72	-0.39	1.0000 
	-3	-4	17	22322	3208	23108	-0.58	-0.24	1.0000 
	-4	-3	17	24953	2800	25788	-0.59	-0.28	1.0000 
	-4	3	17	20908	4023	21791	0.68	-0.44	1.0000 
	-4	-3	18	2783	1092	2915	0.29	-0.85	1.0000 
	-4	3	18	2634	490	2383	-0.53	-0.46	1.0000 
	-4	3	-18	2394	573	2131	-0.59	0.61	1.0000 
	-3	4	-18	1244	348	1069	-0.54	0.54	1.0000 
	-4	-3	-18	1551	853	1629	0.25	0.76	1.0000 
	3	4	-18	1750	885	1844	0.27	0.78	1.0000 
	3	-4	-18	138	1278	78	-0.58	0.51	1.0000 
	4	3	18	1689	729	1770	0.25	-0.76	1.0000 
	3	-4	18	1476	261	1285	-0.54	-0.54	1.0000 
	4	-3	18	1633	786	1416	-0.59	-0.61	1.0000 
	-3	-4	18	2367	393	2478	0.27	-0.78	1.0000 
	-3	4	18	3156	634	2857	-0.58	-0.51	1.0000 
	-4	3	18	3016	478	2747	-0.53	-0.46	1.0000 
	-4	-3	18	2788	782	2921	0.29	-0.85	1.0000 
	-3	4	19	82948	5058	92024	-3.42	2.02	1.0000 
	-3	-4	19	87289	6639	86504	-0.31	-0.57	1.0000 
	-4	-3	19	97234	6158	96539	-0.27	-0.63	1.0000 
	-4	3	19	79571	7097	88376	-3.39	2.09	1.0000 
	-4	-3	-19	91834	6617	91072	-0.3	0.69	1.0000 
	-3	4	-19	78754	5439	87606	-3.42	-2.03	1.0000 
	-4	3	-19	85106	5427	94405	-3.46	-1.91	1.0000 
	3	4	-19	103040	10319	102187	-0.31	0.57	1.0000 
	3	-4	-19	77900	6066	86700	-3.42	-2.02	1.0000 
	4	3	19	86979	6556	86238	-0.3	-0.69	1.0000 
	3	-4	19	74907	9459	83543	-3.42	2.03	1.0000 
	4	-3	19	81459	5050	90560	-3.46	1.91	1.0000 
	-3	-4	19	89622	10408	88826	-0.31	-0.57	1.0000 
	-3	4	19	80010	7064	88927	-3.42	2.02	1.0000 
	-4	3	19	78713	6707	87471	-3.39	2.09	1.0000 
	-4	-3	19	99667	11598	98963	-0.27	-0.63	1.0000 
	-3	-4	20	367	675	529	-0.86	0.95	1.0000 
	-4	3	20	1245	768	1560	-0.88	-0.38	1.0000 
	-4	-3	20	1075	785	1358	-0.89	0.84	1.0000 
	-4	-3	-20	736	624	963	-0.83	-1.07	1.0000 
	-3	4	-20	488	441	704	-0.91	0.52	1.0000 
	-4	3	-20	555	324	780	-0.89	0.53	1.0000 
	4	-3	-20	1458	931	1798	-0.88	0.38	1.0000 
	4	3	20	804	514	1041	-0.83	1.07	1.0000 
	3	-4	20	218	242	368	-0.91	-0.52	1.0000 
	4	-3	20	663	229	907	-0.89	-0.53	1.0000 
	-4	3	20	1448	797	1787	-0.88	-0.38	1.0000 
	-3	-4	20	1175	551	1467	-0.86	0.95	1.0000 
	-4	-3	20	1639	717	1988	-0.89	0.84	1.0000 
	-3	-4	-20	1098	519	1378	-0.85	-0.94	1.0000 
	-4	-3	-20	328	305	476	-0.83	-1.07	1.0000 
	3	-4	20	961	338	1257	-0.91	-0.52	1.0000 
	-3	-4	-20	422	221	595	-0.85	-0.94	1.0000 
	-4	-3	-20	867	256	1114	-0.83	-1.07	1.0000 
	3	-4	-20	725	337	968	-0.88	0.39	1.0000 
	-3	-4	21	112678	11506	123025	-3.34	0.16	1.0000 
	-3	4	21	132721	12322	132078	-0.17	1.1	1.0000 
	-4	-3	21	123991	16443	134708	-3.3	0.05	1.0000 
	-4	-3	-21	111889	13214	122012	-3.28	-0.13	1.0000 
	-3	4	-21	120304	12141	119876	-0.11	-1.16	1.0000 
	-4	3	-21	131679	12463	130950	-0.2	-1.02	1.0000 
	4	3	-21	128199	13939	139092	-3.3	-0.05	1.0000 
	3	4	-21	121318	16950	132046	-3.34	-0.16	1.0000 
	3	-4	-21	127117	13498	126487	-0.17	-1.1	1.0000 
	4	-3	-21	134318	13345	133909	-0.1	-1.24	1.0000 
	4	3	21	117151	12144	127504	-3.28	0.13	1.0000 
	3	-4	21	133100	12244	132652	-0.11	1.16	1.0000 
	4	-3	21	125176	11756	124465	-0.2	1.02	1.0000 
	-3	-4	21	114951	15490	125400	-3.34	0.16	1.0000 
	-4	-3	21	119429	15129	129951	-3.3	0.05	1.0000 
	-3	4	21	131506	12221	130866	-0.17	1.1	1.0000 
	-4	3	-21	114717	10389	114035	-0.2	-1.02	1.0000 
	-4	-3	-21	113086	11451	123262	-3.28	-0.13	1.0000 
	4	-3	-21	108763	10294	108392	-0.1	-1.24	1.0000 
	3	-4	-21	110708	10562	110119	-0.17	-1.1	1.0000 
	4	3	-21	108204	10650	118230	-3.3	-0.05	1.0000 
	-4	-3	21	92807	9206	102108	-3.3	0.05	1.0000 
	3	-4	-21	98222	8832	97666	-0.17	-1.1	1.0000 
	-4	3	-21	92632	8544	92017	-0.2	-1.02	1.0000 
	-4	-3	-21	93955	10085	103249	-3.28	-0.13	1.0000 
	3	-4	-21	99816	10063	99255	-0.17	-1.1	1.0000 
	-3	4	22	4	404	406	-0.27	4.6	1.0000 
	-3	-4	22	23	500	446	-0.49	3.69	1.0000 
	-4	-3	22	455	768	1414	-0.43	3.62	1.0000 
	-4	3	22	318	531	1511	-0.45	4.68	1.0000 
	-4	-3	-22	143	729	806	-0.42	-3.67	1.0000 
	-3	4	-22	8	323	550	-0.52	-4.73	1.0000 
	-4	3	-22	4	273	432	-0.35	-4.63	1.0000 
	4	-3	-22	247	454	1350	-0.45	-4.68	1.0000 
	3	4	-22	431	586	1397	-0.49	-3.69	1.0000 
	3	-4	-22	157	697	1098	-0.27	-4.6	1.0000 
	4	3	-22	289	920	1105	-0.43	-3.62	1.0000 
	4	3	22	186	700	904	-0.42	3.67	1.0000 
	3	-4	22	17	172	317	-0.52	4.73	1.0000 
	4	-3	22	22	350	276	-0.35	4.63	1.0000 
	-4	-3	22	624	454	1704	-0.43	3.62	1.0000 
	-4	3	22	259	359	1380	-0.45	4.68	1.0000 
	-4	3	-22	71	344	845	-0.35	-4.63	1.0000 
	-4	-3	-22	188	596	910	-0.42	-3.67	1.0000 
	4	3	-22	574	406	1619	-0.43	-3.62	1.0000 
	4	-3	-22	384	471	1654	-0.45	-4.68	1.0000 
	3	-4	-22	213	656	1240	-0.27	-4.6	1.0000 
	3	4	-22	117	341	748	-0.49	-3.69	1.0000 
	-3	-4	22	1586	1293	3189	-0.49	3.69	1.0000 
	-4	-3	22	929	890	2189	-0.43	3.62	1.0000 
	3	-4	-22	666	720	2160	-0.27	-4.6	1.0000 
	-3	-4	23	123025	18098	123728	0.25	-1.28	1.0000 
	-3	4	23	136700	34785	136959	-0.08	0.06	1.0000 
	-4	-3	23	113911	19579	114676	0.28	-1.29	1.0000 
	-4	-3	-23	102963	21419	103714	0.29	1.27	1.0000 
	-4	3	-23	135170	34466	135379	-0.06	-0.07	1.0000 
	3	4	-23	122479	20907	123181	0.25	1.28	1.0000 
	3	-4	-23	119417	20899	119659	-0.08	-0.06	1.0000 
	4	3	-23	146587	37963	147459	0.28	1.29	1.0000 
	4	3	23	132774	34031	133631	0.29	-1.27	1.0000 
	3	-4	23	71888	10642	71866	0.01	0.03	1.0000 
	4	-3	23	121922	17989	122121	-0.06	0.07	1.0000 
	-4	-3	23	115777	19258	116549	0.28	-1.29	1.0000 
	-3	-4	23	99810	18899	100440	0.25	-1.28	1.0000 
	-3	4	23	116898	19029	117138	-0.08	0.06	1.0000 
	-4	3	-23	116777	16966	116972	-0.06	-0.07	1.0000 
	-4	-3	-23	128679	18925	129522	0.29	1.27	1.0000 
	3	4	-23	116757	16975	117441	0.25	1.28	1.0000 
	4	3	-23	135338	34417	136175	0.28	1.29	1.0000 
	4	-3	-23	126083	18253	126104	-0.01	-0.02	1.0000 
	-4	-3	23	105180	15413	105914	0.28	-1.29	1.0000 
	-3	-4	23	118215	17258	118904	0.25	-1.28	1.0000 
	3	-4	-23	105554	15340	105782	-0.08	-0.06	1.0000 
	-4	3	-23	98039	14337	98217	-0.06	-0.07	1.0000 
	-4	-3	-23	129912	33722	130760	0.29	1.27	1.0000 
	3	4	-23	86951	13960	87537	0.25	1.28	1.0000 
	4	-3	-23	122713	19015	122733	-0.01	-0.02	1.0000 
	-4	-3	24	4514	1987	3244	2.27	0.64	1.0000 
	-3	-4	24	3361	1743	2280	2.27	0.67	1.0000 
	-3	4	24	4143	2097	3574	1.01	0.19	1.0000 
	-4	3	-24	5872	2005	5212	0.98	-0.21	1.0000 
	3	4	-24	7625	2032	5949	2.27	-0.67	1.0000 
	3	-4	-24	7274	2136	6514	1.01	-0.19	1.0000 
	4	3	-24	6733	3207	5161	2.27	-0.64	1.0000 
	4	-3	24	3296	2033	2806	0.98	0.21	1.0000 
	3	4	24	8933	1371	7112	2.27	0.72	1.0000 
	-4	-3	24	6504	2720	4961	2.27	0.64	1.0000 
	-3	-4	24	8908	843	7089	2.27	0.67	1.0000 
	-3	4	24	7655	1468	6875	1.01	0.19	1.0000 
	-4	3	-24	6371	2025	5683	0.98	-0.21	1.0000 
	-4	-3	-24	8172	2542	6446	2.25	-0.77	1.0000 
	4	3	-24	8563	2409	6778	2.27	-0.64	1.0000 
	4	-3	-24	9463	1689	8626	0.98	-0.2	1.0000 
	3	4	-24	9576	1294	7686	2.27	-0.67	1.0000 
	-3	-4	24	13380	1234	11129	2.27	0.67	1.0000 
	-4	-3	24	10457	1092	8475	2.27	0.64	1.0000 
	-4	3	-24	11096	1106	10182	0.98	-0.21	1.0000 
	3	4	-24	14140	965	11824	2.27	-0.67	1.0000 
	4	3	-24	14819	1324	12441	2.27	-0.64	1.0000 
	-3	4	-25	9087	2958	9179	0.06	-0.84	1.0000 
	-4	3	-25	13508	3527	13542	-0.03	-1.02	1.0000 
	-3	-4	-25	19937	1843	19178	0.54	1.83	1.0000 
	-4	-3	-25	20612	2180	19882	0.51	1.81	1.0000 
	4	3	-25	21723	2793	20930	0.54	1.95	1.0000 
	4	-3	-25	19733	3047	19909	0.08	-0.87	1.0000 
	3	4	-25	17805	2707	17108	0.52	1.94	1.0000 
	-4	-3	25	15622	1480	14939	0.54	-1.95	1.0000 
	-3	-4	25	22235	2019	21464	0.52	-1.94	1.0000 
	-4	3	-25	16252	2030	16291	-0.03	-1.02	1.0000 
	-4	-3	-25	26098	2228	25284	0.51	1.81	1.0000 
	4	3	-25	22493	1467	21687	0.54	1.95	1.0000 
	4	-3	-25	21624	2051	21809	0.08	-0.87	1.0000 
	3	4	-25	15998	1555	15333	0.52	1.94	1.0000 
	-4	-3	-26	1414	627	1935	-1.38	0.6	1.0000 
	-4	3	-26	1537	582	1614	-0.17	0.64	1.0000 
	-3	4	-26	1087	480	1148	-0.17	0.65	1.0000 
	-3	-4	-26	330	302	604	-1.4	0.61	1.0000 
	3	4	-26	1656	603	2209	-1.36	0.59	1.0000 
	4	-3	-26	2548	778	2646	-0.17	0.59	1.0000 
	4	3	-26	1972	733	2571	-1.36	0.59	1.0000 
	-3	-4	26	1865	641	2450	-1.36	-0.59	1.0000 
	-4	-3	26	1329	508	1827	-1.36	-0.59	1.0000 
	-4	3	-26	866	286	922	-0.17	0.64	1.0000 
	-3	4	-26	596	199	639	-0.17	0.65	1.0000 
	-3	-4	-26	1600	642	2160	-1.4	0.61	1.0000 
	-4	-3	-26	2020	748	2636	-1.38	0.6	1.0000 
	3	4	-26	865	356	1274	-1.36	0.59	1.0000 
	4	3	-26	1650	591	2201	-1.36	0.59	1.0000 
	4	-3	-26	2425	733	2521	-0.17	0.59	1.0000 
	-4	3	-27	13457	4518	14892	-1.31	0.62	1.0000 
	-3	4	-27	15658	3825	17178	-1.28	0.77	1.0000 
	-4	-3	-27	29622	4939	25715	-2.58	-1	1.0000 
	-3	-4	-27	28371	5133	24570	-2.56	-0.98	1.0000 
	3	4	-27	27098	4716	23366	-2.58	-1	1.0000 
	4	3	-27	32692	5682	28578	-2.58	-0.98	1.0000 
	4	-3	-27	27094	4660	29048	-1.26	0.73	1.0000 
	-3	-4	27	28437	4450	24611	-2.58	1	1.0000 
	-4	-3	27	20579	3562	17340	-2.58	0.98	1.0000 
	-3	-4	-27	31671	5016	27648	-2.56	-0.98	1.0000 
	-4	-3	-27	34630	4993	30396	-2.58	-1	1.0000 
	-4	3	-27	17075	3807	18687	-1.31	0.62	1.0000 
	-3	4	-27	11812	2807	13136	-1.28	0.77	1.0000 
	4	3	-27	31679	4735	27631	-2.58	-0.98	1.0000 
	3	4	-27	24536	3701	20991	-2.58	-1	1.0000 
	4	-3	-27	29963	5839	32017	-1.26	0.73	1.0000 
	-4	-3	-28	2094	651	1663	-1.15	-0.53	1.0000 
	-3	4	-28	770	329	782	0.09	1.02	1.0000 
	-4	3	-28	1079	391	1099	0.09	1.02	1.0000 
	-3	-4	-28	1391	384	1046	-1.14	-0.52	1.0000 
	3	4	-28	2282	595	1831	-1.16	-0.56	1.0000 
	4	-3	-28	2193	698	2227	0.08	1.02	1.0000 
	4	3	-28	2576	666	2104	-1.14	-0.55	1.0000 
	-3	-4	28	2123	507	1688	-1.16	0.56	1.0000 
	-4	-3	28	1909	471	1505	-1.14	0.55	1.0000 
	-3	-4	-28	1752	419	1363	-1.14	-0.52	1.0000 
	-4	-3	-28	2433	643	1967	-1.15	-0.53	1.0000 
	-3	4	-28	707	225	718	0.09	1.02	1.0000 
	3	4	-28	2044	490	1618	-1.16	-0.56	1.0000 
	4	-3	-28	1978	607	2009	0.08	1.02	1.0000 
	4	3	-28	2314	570	1868	-1.14	-0.55	1.0000 
	-4	3	-29	13607	3826	14051	0.43	0.76	1.0000 
	-4	-3	-29	13273	3979	12729	0.58	-1.14	1.0000 
	-3	-4	-29	11938	3812	11408	0.59	-1.07	1.0000 
	3	-4	-29	14705	5549	15172	0.44	0.73	1.0000 
	3	4	-29	13578	3515	13054	0.55	-1.13	1.0000 
	4	3	-29	17913	3094	17294	0.57	-1.07	1.0000 
	4	-3	-29	15966	2925	16468	0.45	0.82	1.0000 
	-3	-4	29	13146	3311	12630	0.55	1.13	1.0000 
	-4	-3	29	7090	1930	6694	0.57	1.07	1.0000 
	-3	-4	-29	17523	2656	16884	0.59	-1.07	1.0000 
	-4	-3	-29	18752	2961	18110	0.58	-1.14	1.0000 
	3	4	-29	13776	3322	13248	0.55	-1.13	1.0000 
	4	-3	-29	18685	2892	19229	0.45	0.82	1.0000 
	4	3	-29	17183	2734	16576	0.57	-1.07	1.0000 
	-3	4	-30	383	161	393	-0.03	0.23	1.0000 
	-4	-3	-30	805	273	705	0.56	0.94	1.0000 
	-4	3	-30	471	181	480	-0.02	0.27	1.0000 
	-3	-4	-30	1120	407	1006	0.56	0.97	1.0000 
	4	-3	-30	1335	492	1357	-0.04	0.25	1.0000 
	4	3	-30	1164	347	1053	0.54	0.97	1.0000 
	3	-4	-30	944	358	960	-0.03	0.27	1.0000 
	3	4	-30	894	262	793	0.54	0.94	1.0000 
	-4	-3	30	435	138	360	0.54	-0.97	1.0000 
	-3	-4	30	363	144	292	0.54	-0.94	1.0000 
	-3	-4	-30	914	273	809	0.56	0.97	1.0000 
	-4	-3	-30	910	310	805	0.56	0.94	1.0000 
	3	4	-30	784	255	689	0.54	0.94	1.0000 
	3	-4	-30	909	351	925	-0.03	0.27	1.0000 
	4	3	-30	893	261	794	0.54	0.97	1.0000 
	4	-3	-30	786	349	802	-0.04	0.25	1.0000 
	-4	-3	-31	643	375	823	0.73	0.4	1.0000 
	-3	-4	-31	976	462	1202	0.75	0.48	1.0000 
	-3	4	-31	411	196	507	-0.5	0.55	1.0000 
	-4	3	-31	405	209	501	-0.5	0.53	1.0000 
	3	-4	-31	1220	516	1389	-0.51	0.49	1.0000 
	4	-3	-31	981	476	1135	-0.51	0.52	1.0000 
	4	3	-31	1092	489	1323	0.73	0.49	1.0000 
	3	4	-31	516	270	673	0.71	0.42	1.0000 
	-3	-4	31	612	324	782	0.71	-0.42	1.0000 
	-3	-4	-31	1305	620	1566	0.75	0.48	1.0000 
	-4	-3	-31	788	386	986	0.73	0.4	1.0000 
	3	4	-31	411	252	552	0.71	0.42	1.0000 
	3	-4	-31	1081	462	1240	-0.51	0.49	1.0000 
	4	3	-31	1032	483	1257	0.73	0.49	1.0000 
	4	-3	-31	977	457	1131	-0.51	0.52	1.0000 
	-3	4	-32	321	209	390	0.46	0.86	1.0000 
	-3	-4	-32	974	493	1044	0.27	0.45	1.0000 
	-4	-3	-32	877	474	942	0.26	0.44	1.0000 
	-4	3	-32	535	293	628	0.47	0.91	1.0000 
	4	3	-32	964	468	1028	0.25	0.37	1.0000 
	3	-4	-32	1066	522	1199	0.46	0.86	1.0000 
	3	4	-32	620	297	671	0.25	0.38	1.0000 
	4	-3	-32	936	479	1060	0.46	0.82	1.0000 
	-3	-4	-32	861	435	927	0.27	0.45	1.0000 
	-4	-3	-32	1277	612	1356	0.26	0.44	1.0000 
	4	3	-32	1162	539	1232	0.25	0.37	1.0000 
	3	-4	-32	505	300	593	0.46	0.86	1.0000 
	3	4	-32	361	199	399	0.25	0.38	1.0000 
	4	-3	-32	847	452	964	0.46	0.82	1.0000 
	-4	3	-33	14	129	-20	-0.71	-0.41	1.0000 
	-3	-4	-33	3	130	-63	-0.06	0.35	1.0000 
	-4	-3	-33	44	86	44	-0.05	0.33	1.0000 
	-3	4	-33	14	106	-18	-0.74	-0.37	1.0000 
	4	-3	-33	36	162	76	-0.76	-0.38	1.0000 
	4	3	-33	148	206	148	-0.07	0.37	1.0000 
	3	-4	-33	145	136	221	-0.73	-0.43	1.0000 
	3	4	-33	55	68	54	-0.06	0.35	1.0000 
	-3	-4	-33	3	245	-50	-0.06	0.35	1.0000 
	-4	-3	-33	86	195	86	-0.05	0.33	1.0000 
	3	4	-33	133	124	133	-0.06	0.35	1.0000 
	4	-3	-33	90	145	152	-0.76	-0.38	1.0000 
	4	3	-33	60	168	59	-0.07	0.37	1.0000 
	3	-4	-33	58	158	107	-0.73	-0.43	1.0000 
	-4	-3	-34	290	173	320	-0.21	-0.26	1.0000 
	-3	-4	-34	287	165	317	-0.22	-0.31	1.0000 
	-4	3	-34	100	88	155	-0.49	0.44	1.0000 
	3	4	-34	115	84	132	-0.21	-0.38	1.0000 
	4	-3	-34	409	243	515	-0.49	0.4	1.0000 
	4	3	-34	449	241	489	-0.23	-0.44	1.0000 
	3	-4	-34	291	206	379	-0.48	0.38	1.0000 
	-3	-4	-34	216	158	242	-0.22	-0.31	1.0000 
	3	4	-34	114	88	131	-0.21	-0.38	1.0000 
	4	-3	-34	417	272	525	-0.49	0.4	1.0000 
	3	-4	-34	305	206	395	-0.48	0.38	1.0000 
	4	3	-34	298	162	330	-0.23	-0.44	1.0000 
	-4	-3	-35	12495	3750	12728	-0.23	-0.06	1.0000 
	-3	-4	-35	6975	2460	7152	-0.24	-0.05	1.0000 
	3	-4	-35	17235	4425	15540	-1.47	-0.02	1.0000 
	3	4	-35	7877	2366	8056	-0.23	-0.08	1.0000 
	4	-3	-35	17503	4519	15782	-1.48	0.02	1.0000 
	4	3	-35	13011	3660	13239	-0.22	-0.08	1.0000 
	-3	-4	-35	9570	2799	9778	-0.24	-0.05	1.0000 
	4	-3	-35	15729	3837	14100	-1.48	0.02	1.0000 
	4	3	-35	9543	2683	9739	-0.22	-0.08	1.0000 
	3	-4	-35	15197	3735	13608	-1.47	-0.02	1.0000 
	3	4	-35	2955	1048	3065	-0.23	-0.08	1.0000 
	-4	4	0	647653	26160	816265	21.86	0.01	1.0000 
	-4	-4	0	678222	24536	833759	19.83	-0.12	1.0000 
	-4	4	0	652456	24197	821656	21.86	0.01	1.0000 
	-4	-4	0	663233	26124	817131	19.83	-0.12	1.0000 
	-4	4	0	641871	25950	809772	21.86	0.01	1.0000 
	-4	-4	0	670411	24267	825097	19.83	-0.12	1.0000 
	-4	4	1	54467	2802	60929	-2.93	-1.91	1.0000 
	-4	-4	1	63781	3957	69955	2.64	1.33	1.0000 
	-4	4	-1	58318	4044	64982	-2.91	2	1.0000 
	-4	-4	-1	65048	2973	71240	2.63	-0.72	1.0000 
	-4	4	-1	61349	3401	68181	-2.91	2	1.0000 
	-4	4	1	64844	3038	71884	-2.93	-1.91	1.0000 
	-4	-4	1	65967	2974	72244	2.64	1.33	1.0000 
	-4	-4	-1	63263	2900	69371	2.63	-0.72	1.0000 
	-4	4	1	54899	2818	61386	-2.93	-1.91	1.0000 
	-4	4	-1	58189	3941	64846	-2.91	2	1.0000 
	-4	-4	-1	69522	3134	75919	2.63	-0.72	1.0000 
	-4	-4	1	66728	3010	73041	2.64	1.33	1.0000 
	-4	4	2	428241	16038	492828	-10.55	0.2	1.0000 
	-4	-4	2	413039	15565	477044	-10.65	0.91	1.0000 
	-4	4	-2	421303	15868	484283	-10.39	-1.26	1.0000 
	-4	-4	-2	406813	15401	470427	-10.65	-0.36	1.0000 
	-4	-4	2	410493	15457	474308	-10.65	0.91	1.0000 
	-4	4	-2	418509	15779	481287	-10.39	-1.26	1.0000 
	-4	-4	-2	408955	15455	472731	-10.65	-0.36	1.0000 
	4	4	2	439672	16451	505714	-10.65	0.36	1.0000 
	-4	4	-2	417235	15711	479921	-10.39	-1.26	1.0000 
	-4	4	2	422808	15860	486999	-10.55	0.2	1.0000 
	-4	-4	2	414489	15609	478602	-10.65	0.91	1.0000 
	-4	-4	3	84323	2990	70106	5.79	-2.6	1.0000 
	-4	4	-3	90740	2909	71963	-7.29	-1.54	1.0000 
	-4	-4	3	84290	3061	70076	5.79	-2.6	1.0000 
	-4	4	-3	91694	2928	72813	-7.29	-1.54	1.0000 
	-4	-4	-3	86844	2997	72393	5.82	2.86	1.0000 
	4	4	3	90929	3926	76131	5.82	-2.86	1.0000 
	-4	-4	3	85410	3227	71099	5.79	-2.6	1.0000 
	-4	4	-3	91951	2941	73042	-7.29	-1.54	1.0000 
	-4	4	4	183467	6170	174163	-2.48	1.26	1.0000 
	-4	4	-4	182186	6199	172926	-2.49	-1.6	1.0000 
	-4	-4	4	167142	6266	173808	1.75	1.3	1.0000 
	-4	-4	4	166158	6313	172805	1.75	1.3	1.0000 
	-4	4	-4	182904	6203	173626	-2.49	-1.6	1.0000 
	4	4	4	162694	5979	169227	1.74	1.1	1.0000 
	-4	4	4	178468	6015	169293	-2.48	1.26	1.0000 
	-4	-4	4	163700	6081	170297	1.75	1.3	1.0000 
	-4	4	-4	178542	6781	169376	-2.49	-1.6	1.0000 
	-4	-4	5	86680	2495	56170	-12.71	-0.41	1.0000 
	-4	4	-5	99346	2677	57674	16.6	1.17	1.0000 
	-4	-4	5	90603	2758	59336	-12.71	-0.41	1.0000 
	-4	4	-5	98364	2721	56926	16.6	1.17	1.0000 
	-4	-4	5	87857	2464	57118	-12.71	-0.41	1.0000 
	-4	4	-5	98781	2658	57243	16.6	1.17	1.0000 
	-4	-4	6	32066	2094	21999	6.79	1.24	1.0000 
	-4	4	-6	35234	1684	20009	10.36	1.37	1.0000 
	-4	-4	6	31367	1319	21420	6.79	1.24	1.0000 
	-4	4	-6	34234	1658	19256	10.36	1.37	1.0000 
	-4	-4	6	29835	1560	20157	6.79	1.24	1.0000 
	-4	4	-6	32975	1639	18313	10.36	1.37	1.0000 
	-4	-4	7	95904	3973	87164	3.18	1.53	1.0000 
	-4	4	-7	90775	4554	81073	-3.66	-0.27	1.0000 
	-4	4	-7	95557	3481	85596	-3.66	-0.27	1.0000 
	4	-4	7	98039	3336	87946	-3.66	0.27	1.0000 
	-4	-4	7	92086	3916	83525	3.18	1.53	1.0000 
	-4	-4	8	8457	1925	7333	-1.41	-0.37	1.0000 
	-4	-4	8	6513	1696	5531	-1.41	-0.37	1.0000 
	-4	-4	9	26362	3657	31522	3.37	-0.16	1.0000 
	-4	4	9	26505	1515	25727	0.55	0.38	1.0000 
	-4	-4	9	23161	2672	28012	3.37	-0.16	1.0000 
	-4	-4	10	29136	3817	35548	3.95	0.01	1.0000 
	-4	-4	10	27284	2933	33499	3.95	0.01	1.0000 
	-4	-4	11	51871	3320	60947	-4.25	0.45	1.0000 
	-4	-4	11	51976	3079	61061	-4.25	0.45	1.0000 
	-4	-4	12	40132	3406	44724	-2.51	1.53	1.0000 
	-4	4	-12	44610	2193	43548	0.6	0.79	1.0000 
	4	-4	12	42661	1912	41623	0.6	-0.79	1.0000 
	-4	-4	12	38259	3157	42745	-2.51	1.53	1.0000 
	-4	4	13	45956	4631	47622	-0.84	-0.4	1.0000 
	-4	-4	13	43976	3601	45367	0.63	-2.37	1.0000 
	-4	4	-13	47099	2910	48872	-0.89	0.42	1.0000 
	4	-4	13	46619	2701	48383	-0.89	-0.42	1.0000 
	-4	-4	13	45802	4018	47224	0.63	-2.37	1.0000 
	-4	4	13	46962	6472	48646	-0.84	-0.4	1.0000 
	-4	4	14	46628	3203	45271	-0.73	0.47	1.0000 
	-4	-4	14	52900	5613	50426	-1.17	-0.89	1.0000 
	-4	4	-14	37973	2773	36620	-0.8	-0.39	1.0000 
	-4	-4	14	49684	5194	47287	-1.17	-0.89	1.0000 
	-4	4	14	46705	3089	45347	-0.73	0.47	1.0000 
	-4	4	15	15996	2845	12608	-3.23	1.68	1.0000 
	-4	4	-15	11114	2935	8310	-3.22	-1.57	1.0000 
	-4	-4	15	17175	2724	14881	2.01	-0.48	1.0000 
	-4	4	15	19961	3032	16160	-3.23	1.68	1.0000 
	-4	-4	16	57108	6575	54978	1.09	-1.46	1.0000 
	-4	4	16	60255	3438	57448	1.23	1.84	1.0000 
	-4	4	-16	47999	4972	45467	1.24	-1.93	1.0000 
	4	-4	16	58787	3147	55989	1.24	1.93	1.0000 
	-4	-4	16	58166	5283	56016	1.09	-1.46	1.0000 
	-4	4	16	58053	3361	55297	1.23	1.84	1.0000 
	-4	-4	17	7138	1420	9059	-2.37	0.24	1.0000 
	-4	4	17	6005	2237	7896	2.5	-0.63	1.0000 
	-4	4	-17	3746	1457	5268	2.5	0.65	1.0000 
	4	-4	17	2596	1632	3883	2.5	-0.65	1.0000 
	-4	4	17	6144	1652	8055	2.5	-0.63	1.0000 
	-4	-4	17	6906	1205	8798	-2.37	0.24	1.0000 
	-4	-4	18	34250	6078	34247	-0.04	0.52	1.0000 
	-4	4	18	27756	3688	29066	0.89	-0.59	1.0000 
	-4	4	-18	19748	6326	20850	0.89	0.6	1.0000 
	4	-4	-18	25132	7350	26379	0.89	0.59	1.0000 
	4	-4	18	23200	3746	24394	0.89	-0.6	1.0000 
	-4	4	18	27118	6310	28413	0.89	-0.59	1.0000 
	-4	-4	18	32695	5385	32692	-0.04	0.52	1.0000 
	-4	-4	-18	24105	4397	24096	-0.04	-0.47	1.0000 
	-4	-4	18	22072	3300	22069	-0.04	0.52	1.0000 
	-4	-4	-18	29146	4003	29136	-0.04	-0.47	1.0000 
	-4	4	19	18316	5688	16521	1.51	-0.22	1.0000 
	-4	-4	19	27827	3462	25330	-1.69	0.17	1.0000 
	-4	4	-19	18003	4533	16176	1.55	0.08	1.0000 
	4	-4	-19	27383	3662	25178	1.51	0.22	1.0000 
	4	-4	19	11134	5363	9708	1.55	-0.08	1.0000 
	-4	4	19	27153	4901	24958	1.51	-0.22	1.0000 
	-4	-4	19	31770	3757	29098	-1.69	0.17	1.0000 
	4	-4	-19	21164	2991	19231	1.51	0.22	1.0000 
	-4	-4	19	26128	3229	23711	-1.69	0.17	1.0000 
	4	-4	-19	22993	2584	20977	1.51	0.22	1.0000 
	-4	4	20	10781	4064	10427	0.37	0.18	1.0000 
	-4	-4	20	17612	2808	16565	0.86	0.66	1.0000 
	-4	4	-20	10866	2675	10531	0.36	-0.08	1.0000 
	4	-4	-20	16105	2579	15672	0.37	-0.18	1.0000 
	4	4	-20	18924	2947	17838	0.86	-0.66	1.0000 
	4	-4	20	5884	3242	5638	0.36	0.08	1.0000 
	-4	4	20	15996	2930	15564	0.37	0.18	1.0000 
	-4	-4	20	18700	2668	17621	0.86	0.66	1.0000 
	4	-4	-20	13556	1951	13159	0.37	-0.18	1.0000 
	4	4	-20	14388	1844	13442	0.86	-0.66	1.0000 
	-4	-4	20	15128	1892	14158	0.86	0.66	1.0000 
	4	-4	-20	15257	1787	14835	0.37	-0.18	1.0000 
	-4	4	21	17862	5855	16029	-1.52	-1.91	1.0000 
	-4	-4	21	31295	4101	23922	4.89	-1.88	1.0000 
	-4	4	-21	17029	4508	15270	-1.49	1.76	1.0000 
	4	-4	-21	25573	4615	23384	-1.52	1.91	1.0000 
	4	4	-21	36937	5747	28890	4.89	1.88	1.0000 
	4	-4	21	9866	5461	8524	-1.49	-1.76	1.0000 
	-4	-4	21	35226	4770	27378	4.89	-1.88	1.0000 
	-4	4	21	25694	5635	23500	-1.52	-1.91	1.0000 
	4	-4	-21	25161	3932	22989	-1.52	1.91	1.0000 
	4	4	-21	31287	4477	23915	4.89	1.88	1.0000 
	-4	-4	21	35835	4637	27915	4.89	-1.88	1.0000 
	4	-4	-21	26171	3991	23957	-1.52	1.91	1.0000 
	4	-4	-21	30384	4341	28000	-1.52	1.91	1.0000 
	-4	-4	22	3518	947	4765	2.17	-0.5	1.0000 
	-4	4	22	1609	1375	3051	3.38	-0.88	1.0000 
	4	4	-22	4244	1209	5605	2.17	0.5	1.0000 
	4	-4	-22	2830	1337	4674	3.38	0.88	1.0000 
	-4	4	22	3309	1171	5286	3.38	-0.88	1.0000 
	-4	-4	22	3928	979	5240	2.17	-0.5	1.0000 
	4	4	-22	4426	1045	5814	2.17	0.5	1.0000 
	4	-4	-22	3651	1260	5717	3.38	0.88	1.0000 
	-4	-4	22	5028	1393	6501	2.17	-0.5	1.0000 
	4	-4	-22	3949	1046	6090	3.38	0.88	1.0000 
	4	-4	-22	4455	1188	6715	3.38	0.88	1.0000 
	-4	-4	23	11599	4859	7859	-4.26	0.97	1.0000 
	4	4	-23	29465	3960	23306	-4.26	-0.97	1.0000 
	-4	-4	23	27267	3294	21355	-4.26	0.97	1.0000 
	4	4	-23	34480	3291	27790	-4.26	-0.97	1.0000 
	-4	-4	23	39783	3007	32572	-4.26	0.97	1.0000 
	4	-4	-23	22669	3106	22031	0.51	-0.91	1.0000 
	4	4	-23	37418	1882	30435	-4.26	-0.97	1.0000 
	-4	-4	-24	11324	1455	12968	-1.65	0.38	1.0000 
	4	4	-24	11128	2055	12769	-1.66	0.22	1.0000 
	-4	-4	24	13090	1662	14865	-1.66	-0.22	1.0000 
	4	-4	-24	9499	1403	10180	-0.75	-0.62	1.0000 
	-4	-4	-24	14176	1948	16009	-1.65	0.38	1.0000 
	4	4	-24	12135	902	13846	-1.66	0.22	1.0000 
	-4	-4	-25	504	285	665	-0.81	-0.54	1.0000 
	-4	4	-25	143	161	471	2.28	-0.68	1.0000 
	4	4	-25	926	336	1153	-0.85	-0.51	1.0000 
	-4	-4	25	905	351	1129	-0.85	0.51	1.0000 
	-4	-4	-25	726	288	918	-0.81	-0.54	1.0000 
	4	4	-25	514	209	684	-0.85	-0.51	1.0000 
	-4	-4	-26	4072	1186	3132	1.73	-0.14	1.0000 
	-4	4	-26	2027	796	1791	0.82	1.82	1.0000 
	4	4	-26	5318	1298	4222	1.74	-0.41	1.0000 
	-4	-4	26	4923	1130	3871	1.74	0.41	1.0000 
	-4	-4	-26	5306	1270	4224	1.73	-0.14	1.0000 
	4	4	-26	4353	973	3368	1.74	-0.41	1.0000 
	-4	-4	-27	4598	1442	5196	0.94	-0.06	1.0000 
	-4	4	-27	1644	873	1947	-0.77	-0.81	1.0000 
	4	4	-27	5898	1016	6589	0.97	-0.07	1.0000 
	-4	-4	27	5441	913	6105	0.97	0.07	1.0000 
	-4	-4	-27	6103	874	6789	0.94	-0.06	1.0000 
	4	4	-27	5377	715	6037	0.97	-0.07	1.0000 
	-4	-4	-28	14277	3857	13332	-0.91	-0.25	1.0000 
	-4	4	-28	4359	1591	4252	-0.2	-0.31	1.0000 
	4	4	-28	15175	3555	14206	-0.92	-0.47	1.0000 
	-4	-4	28	13232	3111	12328	-0.92	0.47	1.0000 
	-4	-4	-28	16786	5534	15761	-0.91	-0.25	1.0000 
	4	4	-28	14208	3249	13271	-0.92	-0.47	1.0000 
	-4	-4	-29	5885	2136	6621	-1.01	0.59	1.0000 
	-4	4	-29	2224	979	2389	0.39	-0.53	1.0000 
	4	-4	-29	6863	2327	7194	0.45	-0.44	1.0000 
	4	4	-29	6318	1936	7090	-1.01	0.7	1.0000 
	-4	-4	29	4893	1588	5574	-1.01	-0.7	1.0000 
	-4	-4	-29	6843	2009	7635	-1.01	0.59	1.0000 
	4	4	-29	6690	1875	7484	-1.01	0.7	1.0000 
	-4	-4	-30	18707	4387	20421	-1.36	-0.03	1.0000 
	4	-4	-30	23444	4642	25510	-1.43	0.5	1.0000 
	4	4	-30	16166	3959	17719	-1.33	-0.14	1.0000 
	-4	-4	30	11668	2696	12992	-1.33	0.14	1.0000 
	-4	-4	-30	18379	3856	20079	-1.36	-0.03	1.0000 
	4	4	-30	16232	3316	17788	-1.33	-0.14	1.0000 
	-4	-4	-31	913	546	1213	1.02	0.35	1.0000 
	-4	4	-31	500	285	625	-0.58	0.29	1.0000 
	4	-4	-31	1733	629	1940	-0.53	0.26	1.0000 
	4	4	-31	615	381	871	1.04	0.43	1.0000 
	-4	-4	31	623	401	880	1.04	-0.43	1.0000 
	-4	-4	-31	1008	582	1322	1.02	0.35	1.0000 
	4	4	-31	746	446	1026	1.04	0.43	1.0000 
	4	-4	-31	1104	541	1270	-0.53	0.26	1.0000 
	-4	-4	-32	19873	5663	19851	-0.1	-1.05	1.0000 
	4	-4	-32	24687	6621	25431	0.55	0.67	1.0000 
	4	4	-32	17725	4899	17714	-0.09	-1.07	1.0000 
	4	-4	-32	20337	5289	21012	0.55	0.67	1.0000 
	4	4	-32	14991	3824	14979	-0.09	-1.07	1.0000 
	-4	-4	-33	560	253	414	0.73	0.06	1.0000 
	4	-4	-33	544	224	453	-0.54	0.8	1.0000 
	4	4	-33	370	127	248	0.77	0.07	1.0000 
	4	4	-33	320	116	208	0.77	0.07	1.0000 
	4	-4	-33	565	241	473	-0.54	0.8	1.0000 
	-4	-4	-34	12662	3398	11782	0.9	0.21	1.0000 
	4	4	-34	8697	2395	7976	0.89	0.2	1.0000 
	4	-4	-34	14279	4299	14679	-0.38	-0.24	1.0000 
	4	4	-34	5430	1650	4863	0.89	0.2	1.0000 
	4	-4	-34	13335	3741	13722	-0.38	-0.24	1.0000 
	-5	0	0	221486	8471	259652	-8.66	-0.76	1.0000 
	-5	0	0	218648	8349	256578	-8.66	-0.76	1.0000 
	-5	0	0	216126	8280	253845	-8.66	-0.76	1.0000 
	-5	0	2	172847	6802	203471	7.78	0.99	1.0000 
	-5	0	-2	170380	6726	200047	7.59	-1.17	1.0000 
	-5	0	2	174154	6828	204889	7.78	0.99	1.0000 
	-5	0	-2	171066	6729	200791	7.59	-1.17	1.0000 
	5	0	2	176951	6832	207163	7.59	1.17	1.0000 
	-5	0	2	169921	6699	200295	7.78	0.99	1.0000 
	-5	0	4	83349	3583	81699	0.6	1	1.0000 
	0	-5	-4	85211	2673	83707	0.53	-1.1	1.0000 
	-5	0	4	83402	3574	81752	0.6	1	1.0000 
	0	-5	-4	78752	2478	77306	0.53	-1.1	1.0000 
	-5	0	-4	85098	3382	83636	0.52	-0.94	1.0000 
	0	-5	-4	84244	2640	82749	0.53	-1.1	1.0000 
	5	0	4	80756	3196	79331	0.52	0.94	1.0000 
	0	5	4	85915	2671	84405	0.53	1.1	1.0000 
	0	-5	-4	82772	2601	81290	0.53	-1.1	1.0000 
	-5	0	4	81187	4546	79559	0.6	1	1.0000 
	-5	0	6	9505	2166	5036	-5.82	-1.45	1.0000 
	-5	0	6	12262	2020	7095	-5.82	-1.45	1.0000 
	-5	0	-6	9997	792	5361	-5.88	1.19	1.0000 
	0	-5	-6	8956	962	4610	-5.87	1.09	1.0000 
	5	0	6	9696	676	5141	-5.88	-1.19	1.0000 
	0	5	6	9845	538	5255	-5.87	-1.09	1.0000 
	-5	0	6	10246	2162	5580	-5.82	-1.45	1.0000 
	-5	0	8	54193	3483	60054	2.68	1.55	1.0000 
	-5	0	8	58328	3514	64405	2.68	1.55	1.0000 
	-5	0	-8	56803	2888	62930	2.74	-1.43	1.0000 
	0	-5	-8	61420	2624	67721	2.71	-1.46	1.0000 
	5	0	8	57143	2795	63288	2.74	1.43	1.0000 
	0	5	8	62895	2677	69270	2.71	1.46	1.0000 
	-5	0	8	55252	3966	61169	2.68	1.55	1.0000 
	-5	0	10	68000	4629	79929	-4.88	0.72	1.0000 
	0	5	-10	66732	2688	78447	-4.84	-0.89	1.0000 
	-5	0	-10	68514	4172	80647	-4.95	-0.93	1.0000 
	0	-5	-10	69455	3287	81700	-4.96	-0.74	1.0000 
	5	0	10	68625	4042	80768	-4.95	0.93	1.0000 
	0	-5	10	70814	2761	82869	-4.84	0.89	1.0000 
	0	5	10	70221	3355	82530	-4.96	0.74	1.0000 
	-5	0	10	66540	4143	78345	-4.88	0.72	1.0000 
	-5	0	12	188712	6960	196181	1.89	-0.21	1.0000 
	0	5	-12	198387	6404	206257	1.93	-0.11	1.0000 
	0	-5	-12	206027	7011	213638	1.84	0.07	1.0000 
	0	-5	12	209958	6622	218052	1.93	0.11	1.0000 
	0	5	12	193943	7515	201330	1.84	-0.07	1.0000 
	-5	0	12	188803	7045	196273	1.89	-0.21	1.0000 
	-5	0	14	366922	11801	349972	3.14	-0.26	1.0000 
	0	5	-14	372058	10858	355079	3.12	0.05	1.0000 
	0	-5	-14	379881	11847	362373	3.19	0.22	1.0000 
	5	0	14	321688	10469	305544	3.19	-0.03	1.0000 
	0	-5	14	396591	11394	379054	3.12	-0.05	1.0000 
	0	5	14	365780	11653	348603	3.19	-0.22	1.0000 
	-5	0	14	367442	11836	350480	3.14	-0.26	1.0000 
	-5	0	16	406197	19711	421114	2.52	1.3	1.0000 
	-5	0	-16	419328	20541	434091	2.47	-1.09	1.0000 
	0	5	-16	396285	18723	410811	2.49	-1.31	1.0000 
	0	-5	-16	421803	20157	436819	2.5	-1.09	1.0000 
	5	0	16	437674	21161	452754	2.47	1.09	1.0000 
	0	-5	16	421251	19726	436224	2.49	1.31	1.0000 
	0	5	16	415432	19988	430335	2.5	1.09	1.0000 
	-5	0	16	398240	19408	413011	2.52	1.3	1.0000 
	-5	0	18	324427	36050	336546	-2.3	-1.15	1.0000 
	-5	0	-18	342768	37621	355583	-2.36	1.28	1.0000 
	0	-5	-18	333780	36629	346358	-2.35	1.25	1.0000 
	5	0	18	358243	39217	371342	-2.36	-1.28	1.0000 
	0	5	18	327688	35770	340151	-2.35	-1.25	1.0000 
	-5	0	18	317421	35248	329409	-2.3	-1.15	1.0000 
	-5	0	20	167217	17993	168062	0.25	-1.01	1.0000 
	-5	0	-20	162225	17908	162872	0.2	1.09	1.0000 
	0	-5	-20	168846	18302	169484	0.2	1.01	1.0000 
	5	0	20	157207	18332	157844	0.2	-1.09	1.0000 
	0	5	20	145067	16610	145657	0.2	-1.01	1.0000 
	-5	0	20	152989	18343	153797	0.25	-1.01	1.0000 
	-5	0	-20	158300	16688	158939	0.2	1.09	1.0000 
	5	0	-20	135260	14260	136018	0.25	1.01	1.0000 
	0	-5	20	142186	15282	143016	0.27	-1.11	1.0000 
	-5	0	22	21308	5298	21850	-0.39	-0.52	1.0000 
	-5	0	-22	18993	7104	19595	-0.46	0.42	1.0000 
	0	-5	-22	27408	5760	28131	-0.47	0.38	1.0000 
	5	0	22	23191	6171	23856	-0.46	-0.42	1.0000 
	0	5	22	25936	5844	26639	-0.47	-0.38	1.0000 
	-5	0	22	26188	4699	26789	-0.39	-0.52	1.0000 
	-5	0	-22	24238	3972	24917	-0.46	0.42	1.0000 
	0	-5	-22	23308	3650	23975	-0.47	0.38	1.0000 
	5	0	-22	23775	4411	24347	-0.39	0.52	1.0000 
	0	-5	22	24699	4833	25283	-0.39	-0.58	1.0000 
	0	-5	-22	19422	3752	20031	-0.47	0.38	1.0000 
	-5	0	-22	27096	4967	27814	-0.46	0.42	1.0000 
	0	-5	-22	22794	3925	23454	-0.47	0.38	1.0000 
	0	-5	-24	19664	2460	22086	-1.84	0.66	1.0000 
	0	5	24	18076	3216	20400	-1.84	-0.66	1.0000 
	-5	0	-24	21064	3477	23547	-1.82	0.67	1.0000 
	0	-5	-24	20880	3369	23373	-1.84	0.66	1.0000 
	5	0	-24	19817	2589	22241	-1.83	0.7	1.0000 
	0	-5	24	21542	2460	24060	-1.83	-0.69	1.0000 
	-5	0	-24	23297	2739	25905	-1.82	0.67	1.0000 
	0	-5	-24	19986	1927	22427	-1.84	0.66	1.0000 
	-5	0	-26	14737	3414	15907	1.02	-0.36	1.0000 
	0	-5	-26	15476	3410	16679	1.04	-0.25	1.0000 
	5	0	-26	13116	3250	14222	1.02	-0.5	1.0000 
	0	-5	26	15595	3172	16801	1.01	0.6	1.0000 
	-5	0	-26	15869	3140	17083	1.02	-0.36	1.0000 
	0	-5	-26	13959	2746	15103	1.04	-0.25	1.0000 
	-5	0	-28	43633	4807	48205	-2.38	-0.34	1.0000 
	0	-5	-28	41201	5003	45577	-2.34	-0.27	1.0000 
	5	0	-28	37745	7160	41952	-2.36	-0.35	1.0000 
	0	-5	28	40672	4255	45085	-2.39	0.44	1.0000 
	-5	0	-28	39464	4443	43817	-2.38	-0.34	1.0000 
	0	-5	-28	40536	5514	44877	-2.34	-0.27	1.0000 
	5	0	-28	39037	5518	43313	-2.36	-0.35	1.0000 
	-5	0	-30	73209	10765	76638	1.4	0.21	1.0000 
	5	0	-30	80608	11469	84156	1.38	0.26	1.0000 
	5	0	-30	76224	11556	79675	1.38	0.26	1.0000 
	5	0	-32	71904	31495	76353	-1.79	0.39	1.0000 
	5	0	-32	71455	18709	75890	-1.79	0.39	1.0000 
	-5	0	-34	46974	12659	46824	-0.08	-0.07	1.0000 
	5	0	-34	53442	15437	53324	-0.06	-0.05	1.0000 
	5	0	-34	49860	13675	49746	-0.06	-0.05	1.0000 
	-5	-1	0	193280	6660	197543	-1.07	-0.07	1.0000 
	-5	1	0	192095	6817	198228	-1.55	0.26	1.0000 
	-5	1	0	191785	6738	197913	-1.55	0.26	1.0000 
	-5	-1	0	191617	6581	195862	-1.07	-0.07	1.0000 
	-5	1	0	188536	6622	194613	-1.55	0.26	1.0000 
	-5	-1	0	193502	6656	197768	-1.07	-0.07	1.0000 
	-5	1	1	8747	878	7591	1.42	-0.24	1.0000 
	-5	-1	-1	7590	2271	6472	-1.48	0.01	1.0000 
	-5	1	-1	8352	2093	7221	1.42	-0.34	1.0000 
	-5	-1	1	8151	1367	7013	-1.45	0.13	1.0000 
	-5	1	1	8071	1708	6962	1.42	-0.24	1.0000 
	-5	-1	-1	7898	2442	6757	-1.48	0.01	1.0000 
	-5	1	-1	9727	2140	8504	1.42	-0.34	1.0000 
	-5	-1	1	8491	1149	7329	-1.45	0.13	1.0000 
	-5	-1	1	8799	1426	7615	-1.45	0.13	1.0000 
	-5	1	-1	9401	2305	8199	1.42	-0.34	1.0000 
	-5	1	1	8192	1496	7074	1.42	-0.24	1.0000 
	-1	-5	-2	171591	4981	165588	-1.61	0.17	1.0000 
	-5	-1	2	188759	6207	181961	-1.73	-0.41	1.0000 
	-5	1	2	182647	6208	181725	-0.2	-1.33	1.0000 
	-1	-5	-2	185146	5382	178908	-1.61	0.17	1.0000 
	-5	-1	-2	185102	6125	179118	-1.54	0.28	1.0000 
	-5	1	-2	183353	6477	182793	-0.09	1.84	1.0000 
	-5	-1	2	188894	6191	182094	-1.73	-0.41	1.0000 
	-5	1	2	185204	7188	184276	-0.2	-1.33	1.0000 
	-1	-5	-2	178674	5190	172547	-1.61	0.17	1.0000 
	-5	-1	-2	186993	6385	180978	-1.54	0.28	1.0000 
	-5	1	-2	182479	6332	181920	-0.09	1.84	1.0000 
	5	1	2	190246	6199	184179	-1.54	-0.28	1.0000 
	-1	-5	-2	176622	5131	170531	-1.61	0.17	1.0000 
	-5	1	2	177869	6069	176958	-0.2	-1.33	1.0000 
	-5	-1	2	184436	6073	177717	-1.73	-0.41	1.0000 
	-1	-5	-2	180760	5253	174597	-1.61	0.17	1.0000 
	-5	-1	3	6825	1263	5594	2.36	-3.02	1.0000 
	-5	1	3	5286	1179	5751	0.69	0.23	1.0000 
	-5	1	3	5358	1274	5826	0.69	0.23	1.0000 
	-5	-1	3	7552	2215	6266	2.36	-3.02	1.0000 
	-1	-5	-3	4459	262	3358	2.28	2.33	1.0000 
	1	-5	-3	3232	188	3620	0.73	-0.35	1.0000 
	5	-1	3	6208	1555	6762	0.75	0.6	1.0000 
	1	5	3	4692	535	3564	2.28	-2.33	1.0000 
	-1	5	3	3115	180	3496	0.73	0.35	1.0000 
	-1	5	3	3714	301	4129	0.73	0.35	1.0000 
	-5	1	3	5475	1275	5948	0.69	0.23	1.0000 
	-5	-1	3	7608	1281	6318	2.36	-3.02	1.0000 
	-5	-1	4	114004	4158	110288	1.24	-0.2	1.0000 
	-5	1	4	118355	4469	110822	2.48	-0.37	1.0000 
	1	-5	-4	120917	3561	113379	2.46	0.42	1.0000 
	-5	1	4	118480	4435	110943	2.48	-0.37	1.0000 
	-5	-1	4	113069	4321	109368	1.24	-0.2	1.0000 
	1	-5	-4	119067	3501	111587	2.46	0.42	1.0000 
	-5	1	-4	122183	4671	114567	2.47	0.48	1.0000 
	-1	-5	-4	114099	3540	110194	1.3	0.23	1.0000 
	-5	-1	-4	113905	4385	109824	1.36	0.35	1.0000 
	1	-5	-4	123430	3605	115813	2.46	0.42	1.0000 
	5	-1	4	118881	4190	111371	2.47	-0.48	1.0000 
	5	1	4	110634	3878	106612	1.36	-0.35	1.0000 
	1	5	4	120864	3717	116844	1.3	-0.23	1.0000 
	-1	5	4	124934	3646	117270	2.46	-0.42	1.0000 
	-5	1	4	116541	4357	109067	2.48	-0.37	1.0000 
	-5	-1	4	113738	4125	110026	1.24	-0.2	1.0000 
	-5	-1	5	6663	1595	5512	-1.68	-1.14	1.0000 
	-5	1	5	3842	1629	5184	-2.17	1.05	1.0000 
	-5	1	5	5035	1892	6560	-2.17	1.05	1.0000 
	-5	-1	5	8059	2047	6791	-1.68	-1.14	1.0000 
	-1	-5	-5	4885	559	3877	-1.73	1.18	1.0000 
	1	-5	-5	3149	504	4361	-2.16	-0.97	1.0000 
	1	5	5	5729	1093	4635	-1.73	-1.18	1.0000 
	-1	5	5	3079	693	4278	-2.16	0.97	1.0000 
	-5	-1	5	7228	1585	6028	-1.68	-1.14	1.0000 
	-5	1	5	4112	2052	5498	-2.17	1.05	1.0000 
	-1	5	6	37807	1698	36995	-0.49	0.58	1.0000 
	-5	1	6	35954	2255	35192	-0.47	0.68	1.0000 
	-5	-1	6	39993	1916	36409	-2.01	-1.85	1.0000 
	-5	-1	6	40368	1935	36767	-2.01	-1.85	1.0000 
	-5	1	6	37203	2344	36428	-0.47	0.68	1.0000 
	-5	-1	-6	39230	1951	35757	-1.97	1.62	1.0000 
	-1	-5	-6	41062	1584	37426	-2.01	1.74	1.0000 
	1	-5	-6	40082	1650	39246	-0.49	-0.58	1.0000 
	5	1	6	37870	1864	34459	-1.97	-1.62	1.0000 
	1	5	6	42182	1590	38496	-2.01	-1.74	1.0000 
	-1	5	6	39690	1592	38858	-0.49	0.58	1.0000 
	-5	-1	6	40936	1984	37309	-2.01	-1.85	1.0000 
	-5	1	6	37426	2291	36649	-0.47	0.68	1.0000 
	-5	-1	7	12285	1637	12781	-0.44	-1.43	1.0000 
	-5	1	7	14921	1765	14155	-0.71	-0.18	1.0000 
	-5	-1	7	13452	1539	13972	-0.44	-1.43	1.0000 
	-5	1	7	17141	1938	16320	-0.71	-0.18	1.0000 
	-1	-5	-7	13108	1296	13545	-0.36	1.56	1.0000 
	1	-5	-7	15490	853	14710	-0.71	0.25	1.0000 
	1	5	7	14254	1177	14712	-0.36	-1.56	1.0000 
	-1	5	7	14516	1440	13761	-0.71	-0.25	1.0000 
	-5	1	7	15755	1837	14968	-0.71	-0.18	1.0000 
	-5	-1	7	13962	1138	14493	-0.44	-1.43	1.0000 
	-1	5	8	8815	990	8455	-0.44	-0.92	1.0000 
	-5	-1	8	12212	860	8572	-4.17	-2.4	1.0000 
	-5	1	8	8832	1018	8571	-0.32	-0.79	1.0000 
	-5	-1	8	12262	792	8614	-4.17	-2.4	1.0000 
	-1	-5	-8	11973	724	8341	-4.2	2.32	1.0000 
	1	-5	-8	8546	635	8192	-0.44	0.92	1.0000 
	1	5	-8	11411	394	7887	-4.18	2.35	1.0000 
	-1	-5	8	11318	370	7809	-4.18	-2.35	1.0000 
	1	5	8	12020	950	8380	-4.2	-2.32	1.0000 
	-1	5	8	8195	1947	7848	-0.44	-0.92	1.0000 
	-1	-5	8	11744	380	8166	-4.18	-2.35	1.0000 
	-5	-1	8	11456	852	7936	-4.17	-2.4	1.0000 
	-5	1	8	8423	1024	8168	-0.32	-0.79	1.0000 
	-1	5	9	6648	2598	15158	-9.21	-0.12	1.0000 
	-5	-1	9	9042	1273	16925	7.75	0.65	1.0000 
	-5	1	9	8274	2675	17545	-9.18	-0.44	1.0000 
	-1	-5	-9	9652	1071	17791	7.78	-0.67	1.0000 
	1	-5	-9	8226	1030	17498	-9.21	0.12	1.0000 
	1	5	9	9406	1806	17457	7.78	0.67	1.0000 
	-1	5	9	7962	1489	17113	-9.21	-0.12	1.0000 
	-1	-5	9	7895	688	15310	7.72	0.59	1.0000 
	-5	1	9	8253	2238	17515	-9.18	-0.44	1.0000 
	-5	-1	9	9684	3253	17800	7.75	0.65	1.0000 
	-1	-5	10	15192	650	12454	2.65	-0.8	1.0000 
	-1	5	10	15213	1694	11081	4.03	-0.35	1.0000 
	-5	-1	10	15503	1224	12785	2.59	-0.74	1.0000 
	-5	1	10	17494	1279	13015	4.06	-0.35	1.0000 
	-1	5	-10	15826	565	11587	4.05	0.27	1.0000 
	-5	-1	-10	15709	1987	12807	2.75	0.73	1.0000 
	-1	-5	-10	14875	1671	12117	2.68	0.64	1.0000 
	1	5	-10	13156	1386	10616	2.65	0.8	1.0000 
	1	-5	-10	17418	888	12974	4.03	0.35	1.0000 
	1	-5	10	16726	536	12359	4.05	-0.27	1.0000 
	5	1	10	16628	1747	13639	2.75	-0.73	1.0000 
	1	5	10	14184	845	11494	2.68	-0.64	1.0000 
	-1	5	10	17378	1180	12940	4.03	-0.35	1.0000 
	-1	-5	10	16713	822	13836	2.65	-0.8	1.0000 
	-5	-1	10	16028	1234	13263	2.59	-0.74	1.0000 
	-5	1	10	18186	1252	13613	4.06	-0.35	1.0000 
	-1	-5	11	32679	1705	45524	-7.19	2.05	1.0000 
	-1	5	11	32747	2165	45006	6.9	-0.14	1.0000 
	-5	1	11	34956	2705	47571	6.89	-0.34	1.0000 
	-1	5	-11	29340	1554	40988	6.9	0.24	1.0000 
	-5	-1	-11	40158	2658	54449	-7.26	-2.18	1.0000 
	-5	1	-11	37269	2501	50327	6.93	0.09	1.0000 
	-1	-5	-11	34271	2137	47597	-7.29	-2.13	1.0000 
	1	5	-11	30082	1660	42446	-7.19	-2.05	1.0000 
	1	-5	-11	33059	2059	45372	6.9	0.14	1.0000 
	1	-5	11	33288	1590	45631	6.9	-0.24	1.0000 
	5	1	11	39837	2527	54075	-7.26	2.18	1.0000 
	5	-1	11	39023	4674	52363	6.93	-0.09	1.0000 
	1	5	11	34016	2129	47296	-7.29	2.13	1.0000 
	-1	5	11	29433	3311	41105	6.9	-0.14	1.0000 
	-1	-5	11	31866	2054	44563	-7.19	2.05	1.0000 
	-5	-1	11	31732	2401	44423	-7.2	2	1.0000 
	-5	1	11	32499	2581	44697	6.89	-0.34	1.0000 
	-1	-5	12	99334	3355	100677	0.52	-2.15	1.0000 
	-1	5	12	95354	3870	98141	1.05	-2.65	1.0000 
	-5	-1	12	96259	5768	97495	0.49	-2.13	1.0000 
	-5	1	12	95393	4107	98028	0.99	-2.72	1.0000 
	-1	5	-12	92077	3223	94625	0.98	2.63	1.0000 
	-5	1	-12	95953	4049	98692	1.03	2.54	1.0000 
	-1	-5	-12	101574	4244	103008	0.55	2.17	1.0000 
	1	-5	-12	98512	3836	101347	1.05	2.65	1.0000 
	1	5	-12	95239	3634	96552	0.52	2.15	1.0000 
	1	-5	12	102117	3379	104807	0.98	-2.63	1.0000 
	5	-1	12	98857	4456	101639	1.03	-2.54	1.0000 
	1	5	12	99429	4679	100847	0.55	-2.17	1.0000 
	-1	-5	12	105134	3596	106518	0.52	-2.15	1.0000 
	-1	5	12	91702	3712	94433	1.05	-2.65	1.0000 
	-5	-1	12	98006	4811	99254	0.49	-2.13	1.0000 
	-5	1	12	98337	4246	101014	0.99	-2.72	1.0000 
	-1	5	13	51413	2632	49073	1.16	-0.23	1.0000 
	-1	-5	13	47645	1966	47962	0.16	0.19	1.0000 
	-5	-1	13	49775	4032	50078	0.15	0.2	1.0000 
	-1	5	-13	47095	1880	45060	1.05	-0.04	1.0000 
	-1	-5	-13	46276	2276	46493	0.11	-0.22	1.0000 
	1	5	-13	43147	2641	43448	0.16	-0.19	1.0000 
	1	-5	-13	46658	2859	44430	1.16	0.23	1.0000 
	1	-5	13	49894	1838	47798	1.05	0.04	1.0000 
	5	-1	13	56748	6489	54254	1.17	-0.15	1.0000 
	1	5	13	44628	4242	44841	0.11	0.22	1.0000 
	-1	-5	13	42666	2247	42966	0.16	0.19	1.0000 
	-1	5	13	42552	4082	40426	1.16	-0.23	1.0000 
	-5	-1	13	48671	3910	48970	0.15	0.2	1.0000 
	-1	-5	14	234288	7507	238505	-0.9	-1.43	1.0000 
	-5	-1	14	218009	7951	222254	-0.94	-1.55	1.0000 
	-5	1	14	221803	7916	223692	-0.39	-1.37	1.0000 
	-5	1	-14	225672	8551	227470	-0.35	1.55	1.0000 
	-1	5	-14	216550	7004	218535	-0.41	1.49	1.0000 
	-1	-5	-14	228802	8123	233124	-0.93	1.51	1.0000 
	1	-5	-14	231381	7924	233027	-0.32	1.45	1.0000 
	1	5	-14	225773	7314	229912	-0.9	1.43	1.0000 
	1	5	14	219592	7825	223825	-0.93	-1.51	1.0000 
	1	-5	14	236466	7415	238542	-0.41	-1.49	1.0000 
	-1	5	14	216962	7596	218555	-0.32	-1.45	1.0000 
	-1	-5	14	239737	7635	244003	-0.9	-1.43	1.0000 
	-5	-1	14	220783	8228	225056	-0.94	-1.55	1.0000 
	-5	1	14	224946	8170	226848	-0.39	-1.37	1.0000 
	-1	5	15	31909	2579	27746	-2.67	-0.33	1.0000 
	-5	-1	15	36329	3947	34359	1.18	-1.34	1.0000 
	-1	5	-15	33976	1865	29579	-2.73	0.38	1.0000 
	-5	-1	-15	34782	3049	32847	1.18	1.32	1.0000 
	-5	1	-15	28404	9838	24500	-2.66	0.32	1.0000 
	-1	-5	-15	30387	4633	28611	1.16	1.35	1.0000 
	1	-5	-15	30576	4941	26504	-2.67	0.33	1.0000 
	1	5	-15	27337	3839	25600	1.2	1.33	1.0000 
	5	1	15	36037	2947	34067	1.18	-1.32	1.0000 
	5	-1	15	33534	7600	29280	-2.66	-0.32	1.0000 
	1	5	15	26011	5871	24367	1.16	-1.35	1.0000 
	1	-5	15	28543	2896	24526	-2.73	-0.38	1.0000 
	-1	5	15	32372	6324	28178	-2.67	-0.33	1.0000 
	-1	-5	15	25216	4547	23547	1.2	-1.33	1.0000 
	-5	-1	15	36253	3763	34285	1.18	-1.34	1.0000 
	-1	5	16	259108	12680	265096	1.27	0.75	1.0000 
	-5	1	16	228131	12257	233575	1.22	0.89	1.0000 
	-5	-1	16	233627	12045	243450	2.24	-0.53	1.0000 
	-5	1	-16	242010	12437	247759	1.26	-0.64	1.0000 
	-1	-5	-16	235862	13819	245846	2.27	0.49	1.0000 
	-1	5	-16	227862	10932	233216	1.2	-0.82	1.0000 
	1	-5	-16	254708	12382	260646	1.27	-0.75	1.0000 
	1	5	-16	231703	11255	241537	2.25	0.41	1.0000 
	5	-1	16	250416	12563	256264	1.26	0.64	1.0000 
	1	5	16	229874	12879	239732	2.27	-0.49	1.0000 
	1	-5	16	262054	12339	267794	1.2	0.82	1.0000 
	-1	5	16	238262	12698	244006	1.27	0.75	1.0000 
	-1	-5	16	248651	11945	258834	2.25	-0.41	1.0000 
	-5	-1	16	233315	11974	243131	2.24	-0.53	1.0000 
	-5	1	16	229447	12313	234906	1.22	0.89	1.0000 
	-1	5	17	3951	2179	4228	-0.47	0.81	1.0000 
	-5	-1	17	7558	2318	8732	1.44	-0.15	1.0000 
	-5	-1	-17	4401	1666	5297	1.43	0.09	1.0000 
	-5	1	-17	4693	2621	4984	-0.45	-0.91	1.0000 
	-1	-5	-17	4875	2520	5836	1.45	0.15	1.0000 
	-1	5	-17	2586	1077	2811	-0.47	-0.87	1.0000 
	1	-5	-17	7147	1329	7523	-0.47	-0.81	1.0000 
	1	5	-17	3277	1248	4054	1.42	0.07	1.0000 
	5	1	17	4603	1717	5519	1.43	-0.09	1.0000 
	5	-1	17	4471	3499	4754	-0.45	0.91	1.0000 
	1	5	17	3861	2114	4721	1.45	-0.15	1.0000 
	-1	5	17	7024	2187	7396	-0.47	0.81	1.0000 
	-1	-5	17	3479	1036	4278	1.42	-0.07	1.0000 
	-5	1	17	8898	1493	9342	-0.5	0.79	1.0000 
	-1	5	18	192532	9455	190193	0.55	1.96	1.0000 
	-5	-1	18	181006	9570	177894	0.82	-0.06	1.0000 
	-5	1	18	187778	9243	185279	0.6	1.92	1.0000 
	-5	1	-18	182740	10064	180511	0.53	-2.06	1.0000 
	-1	-5	-18	190429	9995	187183	0.83	0.14	1.0000 
	1	5	-18	179648	8425	176468	0.84	0.16	1.0000 
	1	-5	-18	192555	9526	190216	0.55	-1.96	1.0000 
	5	1	18	187448	11656	184133	0.86	-0.24	1.0000 
	5	-1	18	190010	9915	187739	0.53	2.06	1.0000 
	1	5	18	181163	10591	177997	0.83	-0.14	1.0000 
	-1	5	18	189529	9396	187208	0.55	1.96	1.0000 
	-1	-5	18	181102	8413	177910	0.84	-0.16	1.0000 
	-5	1	18	187122	9260	184628	0.6	1.92	1.0000 
	-5	-1	18	182913	9399	179784	0.82	-0.06	1.0000 
	-5	1	19	2243	566	2014	-0.66	-0.71	1.0000 
	-5	-1	-19	289	323	427	-0.68	-1.28	1.0000 
	-5	1	-19	919	383	762	-0.65	0.52	1.0000 
	-1	-5	-19	410	358	566	-0.66	-1.11	1.0000 
	1	-5	-19	1750	360	1537	-0.67	0.63	1.0000 
	5	1	19	245	177	371	-0.68	1.28	1.0000 
	5	-1	19	912	516	755	-0.65	-0.52	1.0000 
	1	5	19	358	297	503	-0.66	1.11	1.0000 
	-1	5	19	1383	580	1193	-0.67	-0.63	1.0000 
	-5	1	19	2008	482	1791	-0.66	-0.71	1.0000 
	-5	-1	19	23	643	12	-0.7	1.23	1.0000 
	-5	-1	-19	178	173	282	-0.68	-1.28	1.0000 
	5	1	-19	1190	471	1485	-0.7	-1.23	1.0000 
	5	-1	-19	1333	490	1155	-0.66	0.71	1.0000 
	1	-5	19	884	760	736	-0.64	-0.62	1.0000 
	-5	1	20	76317	12625	72238	-1.68	0.44	1.0000 
	-5	-1	-20	72729	7640	67170	-2.33	0.07	1.0000 
	-1	-5	-20	76410	8368	70707	-2.33	0.06	1.0000 
	1	-5	-20	72852	7933	68826	-1.7	-0.56	1.0000 
	5	1	20	72924	10002	67358	-2.33	-0.07	1.0000 
	1	5	20	73905	9525	68298	-2.33	-0.06	1.0000 
	-1	5	20	71841	8724	67843	-1.7	0.56	1.0000 
	-5	-1	20	71366	11294	65759	-2.38	0.08	1.0000 
	-5	1	20	65271	11034	61502	-1.68	0.44	1.0000 
	-5	-1	-20	70575	6997	65101	-2.33	0.07	1.0000 
	-1	-5	-20	44983	4449	40633	-2.33	0.06	1.0000 
	5	1	-20	61313	6353	56125	-2.38	-0.08	1.0000 
	5	-1	-20	63483	6735	59767	-1.68	-0.44	1.0000 
	1	-5	20	66723	6787	62886	-1.69	0.52	1.0000 
	-1	-5	20	66439	6556	60997	-2.39	0.08	1.0000 
	-1	-5	-20	60359	5897	55303	-2.33	0.06	1.0000 
	1	-5	-20	59873	6855	56227	-1.7	-0.56	1.0000 
	-5	1	21	58	168	270	1.97	0.12	1.0000 
	-5	-1	21	38	210	179	-1.57	-0.41	1.0000 
	-5	-1	-21	2	111	72	-1.55	0.24	1.0000 
	-1	-5	-21	5	149	85	-1.54	0.49	1.0000 
	1	-5	-21	36	179	218	1.93	-0.37	1.0000 
	5	1	21	3	138	75	-1.55	-0.24	1.0000 
	1	5	21	26	145	151	-1.54	-0.49	1.0000 
	-1	5	21	11	121	147	1.93	0.37	1.0000 
	-5	-1	21	226	265	497	-1.57	-0.41	1.0000 
	-5	1	21	21	279	180	1.97	0.12	1.0000 
	-5	-1	-21	10	102	16	-1.55	0.24	1.0000 
	-1	-5	-21	56	95	214	-1.54	0.49	1.0000 
	1	-5	-21	14	98	155	1.93	-0.37	1.0000 
	5	-1	-21	5	98	119	1.97	-0.12	1.0000 
	5	1	-21	109	147	313	-1.57	0.41	1.0000 
	1	-5	21	1	93	83	1.93	0.28	1.0000 
	-1	-5	21	29	108	157	-1.58	-0.16	1.0000 
	1	-5	-21	68	138	290	1.93	-0.37	1.0000 
	-5	-1	-21	108	125	303	-1.55	0.24	1.0000 
	-1	-5	-21	76	116	253	-1.54	0.49	1.0000 
	1	-5	-21	90	99	334	1.93	-0.37	1.0000 
	-5	-1	22	5878	1309	5185	1.14	-1.13	1.0000 
	-5	1	22	4617	1146	5893	-1.96	0.13	1.0000 
	-5	-1	-22	4719	1448	4076	1.17	1.07	1.0000 
	-1	-5	-22	6468	1268	5720	1.18	1.16	1.0000 
	1	-5	-22	4273	1011	5455	-1.89	-0.11	1.0000 
	5	1	22	5313	1226	4631	1.17	-1.07	1.0000 
	1	5	22	5978	1253	5259	1.18	-1.16	1.0000 
	-1	5	22	4288	1093	5472	-1.89	0.11	1.0000 
	-5	-1	22	6397	1075	5674	1.14	-1.13	1.0000 
	-5	1	22	4018	998	5213	-1.96	0.13	1.0000 
	-5	-1	-22	5163	1392	4491	1.17	1.07	1.0000 
	-1	-5	-22	4919	1140	4266	1.18	1.16	1.0000 
	1	-5	-22	3334	884	4387	-1.89	-0.11	1.0000 
	5	1	-22	6091	1090	5386	1.14	1.13	1.0000 
	5	-1	-22	3991	973	5183	-1.96	-0.13	1.0000 
	1	-5	22	4449	1134	5722	-1.99	0.14	1.0000 
	-1	-5	22	5987	986	5280	1.14	-1.01	1.0000 
	1	-5	-22	3280	827	4325	-1.89	-0.11	1.0000 
	-5	-1	-22	6797	1117	6026	1.17	1.07	1.0000 
	1	-5	-22	3874	854	5003	-1.89	-0.11	1.0000 
	-1	-5	-22	4967	783	4311	1.18	1.16	1.0000 
	-5	1	23	125	196	137	-0.07	-0.36	1.0000 
	-5	-1	23	85	233	170	0.74	-0.98	1.0000 
	-5	-1	-23	23	266	65	0.75	0.94	1.0000 
	-1	-5	-23	77	112	162	0.78	0.98	1.0000 
	1	-5	-23	239	191	255	-0.08	0.3	1.0000 
	5	-1	-23	187	237	202	-0.07	0.36	1.0000 
	5	1	23	85	261	170	0.75	-0.94	1.0000 
	1	5	23	141	188	255	0.78	-0.98	1.0000 
	-1	5	23	298	201	316	-0.08	-0.3	1.0000 
	-5	1	23	207	238	223	-0.07	-0.36	1.0000 
	-5	-1	23	111	220	208	0.74	-0.98	1.0000 
	-5	-1	-23	22	180	62	0.75	0.94	1.0000 
	-1	-5	-23	132	124	243	0.78	0.98	1.0000 
	1	-5	-23	141	102	153	-0.08	0.3	1.0000 
	5	-1	-23	145	165	158	-0.07	0.36	1.0000 
	5	1	-23	127	124	231	0.74	0.98	1.0000 
	1	-5	23	400	116	424	-0.1	-0.26	1.0000 
	-1	-5	23	154	111	265	0.72	-0.95	1.0000 
	1	-5	-23	130	121	142	-0.08	0.3	1.0000 
	-5	-1	-23	137	154	246	0.75	0.94	1.0000 
	1	-5	-23	380	178	401	-0.08	0.3	1.0000 
	-1	-5	-23	49	94	116	0.78	0.98	1.0000 
	-1	-5	-24	26740	4469	28157	-0.94	0.29	1.0000 
	1	-5	-24	26852	3481	29473	-1.7	1.27	1.0000 
	1	5	24	28479	5396	29941	-0.94	-0.29	1.0000 
	-1	5	24	26045	4546	28627	-1.7	-1.27	1.0000 
	-5	-1	-24	244965	62075	249255	-0.95	0.2	1.0000 
	-1	-5	-24	36297	2411	37945	-0.94	0.29	1.0000 
	1	-5	-24	32389	2112	35265	-1.7	1.27	1.0000 
	5	1	-24	35564	4346	37202	-0.95	0.32	1.0000 
	5	-1	-24	29167	4144	31948	-1.73	1.19	1.0000 
	-1	-5	24	35095	4167	36717	-0.94	-0.23	1.0000 
	1	-5	24	37521	4247	40669	-1.73	-1.17	1.0000 
	1	-5	-24	24744	3397	27262	-1.7	1.27	1.0000 
	1	-5	-24	33978	2979	36923	-1.7	1.27	1.0000 
	-1	-5	-24	32053	3363	33603	-0.94	0.29	1.0000 
	-5	-1	-25	1561	486	1201	-1.11	-1.05	1.0000 
	-1	-5	-25	2626	641	2155	-1.12	-1.08	1.0000 
	1	-5	-25	3096	695	2361	1.66	1.27	1.0000 
	5	-1	-25	2782	801	2093	1.66	1.39	1.0000 
	5	1	-25	2629	642	2151	-1.14	-1.08	1.0000 
	-1	-5	25	3014	706	2506	-1.12	1.05	1.0000 
	1	-5	25	3974	885	3144	1.65	-1.26	1.0000 
	1	-5	-25	2064	438	1466	1.66	1.27	1.0000 
	-5	-1	-25	2758	671	2280	-1.11	-1.05	1.0000 
	-1	-5	-25	2369	548	1921	-1.12	-1.08	1.0000 
	1	-5	-25	2781	614	2085	1.66	1.27	1.0000 
	-5	-1	-26	12663	3365	10139	-2.6	0.43	1.0000 
	-1	-5	-26	16146	2954	13287	-2.6	0.29	1.0000 
	1	-5	-26	15282	2864	12441	-2.65	0.52	1.0000 
	5	1	-26	18233	3041	15202	-2.59	0.27	1.0000 
	5	-1	-26	16368	2868	13407	-2.67	0.55	1.0000 
	-1	-5	26	16674	2638	13781	-2.58	-0.42	1.0000 
	1	-5	26	21054	3367	17681	-2.67	-0.48	1.0000 
	1	-5	-26	9254	1404	7075	-2.65	0.52	1.0000 
	-5	-1	-26	19124	2926	15990	-2.6	0.43	1.0000 
	-1	-5	-26	16064	2411	13213	-2.6	0.29	1.0000 
	1	-5	-26	15475	2419	12615	-2.65	0.52	1.0000 
	-5	-1	-27	12	236	-4	0.38	0.65	1.0000 
	-1	-5	-27	362	154	311	0.36	0.72	1.0000 
	1	-5	-27	270	202	430	0.94	-0.3	1.0000 
	5	1	-27	370	233	320	0.36	0.8	1.0000 
	5	-1	-27	186	280	320	0.94	-0.22	1.0000 
	-1	-5	27	534	167	470	0.38	-0.72	1.0000 
	1	-5	27	69	149	157	0.93	0.24	1.0000 
	-5	-1	-27	526	199	460	0.38	0.65	1.0000 
	1	-5	-27	228	170	376	0.94	-0.3	1.0000 
	-1	-5	-27	13	221	-125	0.36	0.72	1.0000 
	5	-1	-27	687	425	929	0.94	-0.22	1.0000 
	5	1	-27	805	310	737	0.36	0.8	1.0000 
	-5	-1	-28	30123	5049	27699	1.56	-0.31	1.0000 
	-1	-5	-28	31735	3426	29254	1.55	-0.4	1.0000 
	1	-5	-28	29564	3371	29571	-0.05	-1.01	1.0000 
	5	1	-28	34442	5023	31881	1.54	-0.46	1.0000 
	5	-1	-28	28907	5307	28902	-0.04	-0.93	1.0000 
	-1	-5	28	33924	3942	31355	1.56	0.39	1.0000 
	-1	-5	-28	30526	3665	28094	1.55	-0.4	1.0000 
	-5	-1	-28	35685	4400	33042	1.56	-0.31	1.0000 
	1	-5	-28	27409	3596	27415	-0.05	-1.01	1.0000 
	5	1	-28	32053	3472	29584	1.54	-0.46	1.0000 
	5	-1	-28	27610	3251	27604	-0.04	-0.93	1.0000 
	-5	-1	-29	17	132	144	-0.92	3.25	1.0000 
	-1	-5	-29	253	197	-38	-1.05	3.36	1.0000 
	1	-5	-29	76	85	118	1.3	-4.1	1.0000 
	5	1	-29	16	252	315	-0.87	3.27	1.0000 
	5	-1	-29	14	255	253	1.21	-4.06	1.0000 
	-1	-5	29	99	226	572	-0.72	-3.18	1.0000 
	-1	-5	-29	425	433	1299	-1.05	3.36	1.0000 
	-5	-1	-29	981	665	2131	-0.92	3.25	1.0000 
	1	-5	-29	658	639	2014	1.3	-4.1	1.0000 
	5	1	-29	2098	1138	3687	-0.87	3.27	1.0000 
	5	-1	-29	1505	1107	3334	1.21	-4.06	1.0000 
	-5	-1	-30	46987	7105	47899	0.36	-1.5	1.0000 
	5	-1	-30	50866	7183	51739	0.38	-0.78	1.0000 
	5	1	-30	50599	7156	51455	0.33	-1.33	1.0000 
	-1	-5	30	40643	6017	41433	0.33	1.42	1.0000 
	5	1	-30	46568	7171	47388	0.33	-1.33	1.0000 
	5	-1	-30	45884	7329	46712	0.38	-0.78	1.0000 
	-5	-1	-31	99	549	-364	-1.63	1.48	1.0000 
	5	-1	-31	134	392	676	-0.3	-3.41	1.0000 
	5	1	-31	67	212	311	-1.64	1.4	1.0000 
	-1	-5	31	98	201	373	-1.58	-1.44	1.0000 
	5	1	-31	1210	848	1967	-1.64	1.4	1.0000 
	5	-1	-32	48485	12786	47891	0.28	-0.41	1.0000 
	5	1	-32	44811	11007	45021	-0.15	-0.85	1.0000 
	5	1	-32	39740	9996	39937	-0.15	-0.85	1.0000 
	5	-1	-32	48266	11794	47673	0.28	-0.41	1.0000 
	-5	-1	-33	24	93	99	-1.12	0.3	1.0000 
	5	1	-33	420	364	661	-1.15	0.2	1.0000 
	5	-1	-33	465	403	727	1.13	-0.75	1.0000 
	5	-1	-33	505	411	777	1.13	-0.75	1.0000 
	5	1	-33	508	390	770	-1.15	0.2	1.0000 
	5	1	-34	35005	10596	37767	1.56	-0.66	1.0000 
	5	-1	-34	31830	9631	34032	1.33	-0.23	1.0000 
	5	1	-34	36608	10751	39431	1.56	-0.66	1.0000 
	5	-1	-34	31720	9224	33919	1.33	-0.23	1.0000 
	-5	-1	-35	105	258	-382	-1.87	1.27	1.0000 
	5	-1	-35	15	149	106	-0.01	-1.62	1.0000 
	5	1	-35	28	131	32	-1.95	1.16	1.0000 
	5	1	-35	190	306	531	-1.95	1.16	1.0000 
	5	-1	-35	136	182	342	-0.01	-1.62	1.0000 
	-5	2	0	25120	1344	16290	6.81	0.7	1.0000 
	-2	-5	0	24978	783	15931	7.04	-0.35	1.0000 
	-5	-2	0	25875	1224	16649	7.04	-0.43	1.0000 
	-2	-5	0	25295	776	16185	7.04	-0.35	1.0000 
	-5	2	0	26753	1341	17610	6.81	0.7	1.0000 
	-5	-2	0	26544	1221	17187	7.04	-0.43	1.0000 
	-2	-5	0	28752	877	18972	7.04	-0.35	1.0000 
	-5	-2	0	29960	1306	19956	7.04	-0.43	1.0000 
	-5	2	0	28625	1388	19135	6.81	0.7	1.0000 
	-2	5	1	14653	334	8663	6.19	0.2	1.0000 
	-2	-5	1	13776	478	8649	-5.4	-0.43	1.0000 
	-2	-5	-1	13580	598	8497	-5.39	-0.04	1.0000 
	-5	2	-1	14992	1267	8930	6.19	-0.36	1.0000 
	-5	2	1	16128	1504	9785	6.22	0.38	1.0000 
	-5	-2	1	14701	878	9364	-5.42	-0.29	1.0000 
	-5	2	1	15136	1298	9016	6.22	0.38	1.0000 
	-2	-5	1	13370	532	8328	-5.4	-0.43	1.0000 
	-5	2	-1	15285	1449	9157	6.19	-0.36	1.0000 
	-2	-5	-1	13539	575	8464	-5.39	-0.04	1.0000 
	-5	-2	1	14935	943	9551	-5.42	-0.29	1.0000 
	2	-5	-1	12479	282	7011	6.19	-0.2	1.0000 
	-2	5	1	12652	284	7141	6.19	0.2	1.0000 
	-2	5	1	12340	281	6907	6.19	0.2	1.0000 
	-2	-5	1	13267	527	8247	-5.4	-0.43	1.0000 
	-2	-5	-1	13487	590	8423	-5.39	-0.04	1.0000 
	-5	2	1	14669	1089	8656	6.22	0.38	1.0000 
	-5	2	-1	14369	1349	8451	6.19	-0.36	1.0000 
	-5	-2	1	14485	912	9192	-5.42	-0.29	1.0000 
	-2	5	2	26643	792	19425	-5.25	-1.22	1.0000 
	-2	-5	2	30183	899	20187	-6.99	-1.94	1.0000 
	-5	2	2	27242	1256	19963	-5.23	-1.42	1.0000 
	-5	-2	2	30334	1916	20322	-6.98	-1.89	1.0000 
	-5	-2	-2	30517	1400	20474	-6.97	1.69	1.0000 
	-2	-5	-2	30177	954	20197	-6.97	1.66	1.0000 
	-5	2	-2	27777	1327	20460	-5.2	1.12	1.0000 
	-5	2	2	27954	1298	20573	-5.23	-1.42	1.0000 
	-5	-2	-2	30815	1395	20718	-6.97	1.69	1.0000 
	-2	-5	-2	29942	938	20005	-6.97	1.66	1.0000 
	-5	2	-2	28450	1351	21038	-5.2	1.12	1.0000 
	-5	-2	2	30776	1752	20685	-6.98	-1.89	1.0000 
	2	-5	-2	27786	814	20403	-5.25	1.22	1.0000 
	2	-5	-2	26429	769	19242	-5.25	1.22	1.0000 
	5	2	2	30356	2038	20342	-6.97	-1.69	1.0000 
	-2	5	2	28418	821	20945	-5.25	-1.22	1.0000 
	-2	-5	2	31911	1105	21606	-6.99	-1.94	1.0000 
	-2	5	2	27062	809	19783	-5.25	-1.22	1.0000 
	-2	-5	2	30783	1015	20679	-6.99	-1.94	1.0000 
	-5	-2	2	31667	1328	21417	-6.98	-1.89	1.0000 
	-5	2	-2	28997	1357	21509	-5.2	1.12	1.0000 
	-5	2	2	27935	1268	20557	-5.23	-1.42	1.0000 
	-2	5	3	5916	206	1840	-7.56	0.68	1.0000 
	-2	-5	3	8221	530	2684	8.62	-0.93	1.0000 
	-5	-2	3	7541	1511	2301	8.61	-0.82	1.0000 
	-5	2	3	7038	1175	2495	-7.55	0.79	1.0000 
	-5	2	-3	7641	1253	2829	-7.63	-0.9	1.0000 
	-5	2	3	7973	1297	3065	-7.55	0.79	1.0000 
	-5	-2	3	8033	1207	2577	8.61	-0.82	1.0000 
	-5	2	-3	7025	1081	2458	-7.63	-0.9	1.0000 
	-2	-5	-3	6629	816	1808	8.62	0.99	1.0000 
	-5	-2	-3	7816	1226	2459	8.62	1.14	1.0000 
	2	5	-3	6240	384	1608	8.62	0.93	1.0000 
	2	-5	-3	5950	320	1859	-7.56	-0.68	1.0000 
	5	2	3	8683	1271	2957	8.62	-1.14	1.0000 
	2	5	3	6971	380	1989	8.62	-0.99	1.0000 
	-2	-5	3	6604	447	1796	8.62	-0.93	1.0000 
	-2	5	3	4418	338	1051	-7.56	0.68	1.0000 
	-2	-5	3	7270	481	2152	8.62	-0.93	1.0000 
	-5	2	3	5541	985	1637	-7.55	0.79	1.0000 
	-5	2	-3	7275	1275	2607	-7.63	-0.9	1.0000 
	-5	-2	3	6607	1211	1798	8.61	-0.82	1.0000 
	-2	5	4	7992	639	5451	3.44	0.17	1.0000 
	-2	-5	4	8990	390	6326	3.51	-1.4	1.0000 
	-5	-2	4	8335	624	5759	3.53	-1.31	1.0000 
	-5	2	4	8988	651	6287	3.44	0.01	1.0000 
	-5	2	-4	9217	702	6457	3.46	-0.29	1.0000 
	-5	-2	4	8999	667	6315	3.53	-1.31	1.0000 
	-5	2	4	9189	682	6455	3.44	0.01	1.0000 
	-5	2	-4	9278	1407	6508	3.46	-0.29	1.0000 
	-2	-5	-4	8047	1048	5546	3.5	1.41	1.0000 
	-5	-2	-4	8569	891	5987	3.5	1.47	1.0000 
	2	-5	-4	8876	668	6185	3.44	-0.17	1.0000 
	5	-2	4	10422	1513	7472	3.46	0.29	1.0000 
	2	5	4	8991	589	6337	3.5	-1.41	1.0000 
	5	2	4	8589	1086	6004	3.5	-1.47	1.0000 
	-2	5	4	8885	1148	6192	3.44	0.17	1.0000 
	-2	-5	4	9132	519	6445	3.51	-1.4	1.0000 
	-5	2	4	8828	667	6153	3.44	0.01	1.0000 
	-5	-2	4	9250	707	6527	3.53	-1.31	1.0000 
	-2	5	5	212	153	332	6.97	-0.73	1.0000 
	-2	-5	5	472	101	433	-7.25	-2.68	1.0000 
	-5	2	5	73	339	665	6.94	-0.66	1.0000 
	-5	-2	5	462	270	465	-7.22	-2.67	1.0000 
	-5	2	5	49	337	917	6.94	-0.66	1.0000 
	-5	-2	5	447	214	518	-7.22	-2.67	1.0000 
	-2	-5	-5	463	175	446	-7.25	2.63	1.0000 
	-5	-2	-5	512	281	339	-7.27	2.65	1.0000 
	-5	2	-5	223	308	324	6.96	0.84	1.0000 
	2	-5	-5	192	183	363	6.97	0.73	1.0000 
	5	-2	5	148	157	460	6.96	-0.84	1.0000 
	5	2	5	455	361	475	-7.27	-2.65	1.0000 
	2	5	5	436	149	545	-7.25	-2.63	1.0000 
	-2	5	5	161	153	418	6.97	-0.73	1.0000 
	-2	-5	5	437	145	560	-7.25	-2.68	1.0000 
	-5	2	5	67	287	701	6.94	-0.66	1.0000 
	-5	-2	5	425	355	652	-7.22	-2.67	1.0000 
	-2	5	6	22	145	433	3.68	-0.43	1.0000 
	-2	-5	6	14	158	546	5.46	-1.51	1.0000 
	-5	2	6	40	245	526	3.76	-0.46	1.0000 
	-5	-2	6	9	273	663	5.47	-1.43	1.0000 
	-5	-2	6	14	288	752	5.47	-1.43	1.0000 
	-5	2	6	122	314	775	3.76	-0.46	1.0000 
	-5	-2	-6	86	303	294	5.42	1.9	1.0000 
	-5	2	-6	15	326	403	3.69	0.13	1.0000 
	-2	-5	-6	27	183	472	5.44	1.82	1.0000 
	2	-5	-6	29	157	465	3.68	0.43	1.0000 
	5	-2	6	55	175	566	3.69	-0.13	1.0000 
	5	2	6	12	209	641	5.42	-1.9	1.0000 
	2	5	6	23	130	495	5.44	-1.82	1.0000 
	-2	5	6	35	148	490	3.68	-0.43	1.0000 
	-2	-5	6	23	116	471	5.46	-1.51	1.0000 
	-5	-2	6	26	232	453	5.47	-1.43	1.0000 
	-5	2	6	26	293	467	3.76	-0.46	1.0000 
	-2	5	7	661	208	876	-0.7	-2.23	1.0000 
	-2	-5	7	1479	248	1016	-2.18	1.84	1.0000 
	-5	2	7	1011	515	1296	-0.72	-2.14	1.0000 
	-5	-2	7	1499	507	1026	-2.16	1.77	1.0000 
	-5	-2	7	1976	511	1444	-2.16	1.77	1.0000 
	-5	2	-7	710	683	936	-0.7	2.25	1.0000 
	-2	-5	-7	1392	274	964	-2.24	-2.03	1.0000 
	2	-5	-7	584	303	780	-0.7	2.23	1.0000 
	2	5	7	1628	341	1175	-2.24	2.03	1.0000 
	-2	5	7	834	277	1085	-0.7	-2.23	1.0000 
	-2	-5	7	963	397	574	-2.18	1.84	1.0000 
	-5	2	7	981	415	1261	-0.72	-2.14	1.0000 
	-5	-2	7	1631	535	1141	-2.16	1.77	1.0000 
	-2	5	8	40003	2380	30766	-5.47	-1.34	1.0000 
	-2	-5	8	45328	1410	33026	-6.91	0.63	1.0000 
	-5	-2	8	44537	1916	32280	-6.96	0.74	1.0000 
	-5	2	8	40887	2034	31423	-5.55	-1.46	1.0000 
	-2	5	-8	38357	1071	29225	-5.53	1.24	1.0000 
	-5	-2	8	45588	1824	33176	-6.96	0.74	1.0000 
	-2	5	-8	37450	1043	28433	-5.53	1.24	1.0000 
	2	-5	-8	41512	1583	32092	-5.47	1.34	1.0000 
	2	5	8	43658	1759	31570	-6.93	0.61	1.0000 
	-2	5	8	37949	2082	28967	-5.47	-1.34	1.0000 
	-2	-5	8	44560	1365	32371	-6.91	0.63	1.0000 
	-5	2	8	39400	2044	30120	-5.55	-1.46	1.0000 
	-5	-2	8	43573	1788	31460	-6.96	0.74	1.0000 
	-2	5	-8	36732	1025	27808	-5.53	1.24	1.0000 
	-2	5	9	26753	1945	28629	1.25	-0.4	1.0000 
	-2	-5	9	31960	1435	32252	-0.17	0.75	1.0000 
	-5	-2	9	30702	2537	30895	-0.11	0.79	1.0000 
	-5	2	9	29117	1957	31032	1.22	-0.27	1.0000 
	-2	5	-9	27051	1186	28936	1.24	0.52	1.0000 
	-2	5	-9	25668	1132	27504	1.24	0.52	1.0000 
	2	-5	-9	27700	2110	29608	1.25	0.4	1.0000 
	2	5	9	30710	1805	30859	-0.08	0.88	1.0000 
	-2	5	9	25713	2136	27552	1.25	-0.4	1.0000 
	-2	-5	9	28585	1493	28861	-0.17	0.75	1.0000 
	-5	2	9	26749	1852	28585	1.22	-0.27	1.0000 
	-5	-2	9	28232	2776	28416	-0.11	0.79	1.0000 
	-2	5	10	13192	1035	10253	3.01	0.09	1.0000 
	-2	-5	10	11942	1498	9147	3.01	0.63	1.0000 
	-5	-2	10	13910	1430	10897	2.99	0.55	1.0000 
	-2	5	-10	10028	1419	7569	2.9	-0.44	1.0000 
	-2	-5	-10	12352	3150	9476	3.05	-0.35	1.0000 
	-5	-2	-10	13230	1438	10228	3.07	-0.43	1.0000 
	2	-5	-10	13179	807	10241	3.01	-0.09	1.0000 
	2	5	-10	14476	1991	11381	3.01	-0.63	1.0000 
	2	-5	10	11932	497	9234	2.9	0.44	1.0000 
	2	5	10	13856	1671	10799	3.05	0.35	1.0000 
	-2	-5	10	14616	1770	11505	3.01	0.63	1.0000 
	-2	5	10	12610	2151	9740	3.01	0.09	1.0000 
	-5	-2	10	13258	1164	10321	2.99	0.55	1.0000 
	-5	2	10	12943	3242	10151	2.88	0.28	1.0000 
	-2	5	11	7544	2267	8808	-1.44	1.98	1.0000 
	-2	-5	11	9695	1659	9314	-0.46	-0.96	1.0000 
	-5	-2	11	10890	1314	10485	-0.45	-0.84	1.0000 
	-2	-5	-11	8112	2938	7845	-0.35	0.8	1.0000 
	-5	-2	-11	7292	3495	7026	-0.37	0.91	1.0000 
	2	-5	-11	7285	2723	8527	-1.44	-1.98	1.0000 
	2	5	-11	9522	1777	9144	-0.46	0.96	1.0000 
	2	-5	11	7507	526	8762	-1.45	1.84	1.0000 
	2	5	11	9754	1037	9462	-0.35	-0.8	1.0000 
	-2	-5	11	8475	2113	8117	-0.46	-0.96	1.0000 
	-2	5	11	7745	1793	9026	-1.44	1.98	1.0000 
	-5	-2	11	8919	2564	8551	-0.45	-0.84	1.0000 
	-5	2	11	7612	1849	8886	-1.45	1.99	1.0000 
	-2	5	12	35439	2156	31910	-2.21	1.42	1.0000 
	-2	-5	12	33485	1527	34561	0.66	-0.75	1.0000 
	-5	2	12	35672	1896	32007	-2.28	1.35	1.0000 
	-2	5	-12	31817	1340	28292	-2.33	-1.37	1.0000 
	-2	-5	-12	31162	2744	32198	0.66	0.51	1.0000 
	-5	-2	-12	30843	2211	31860	0.65	0.57	1.0000 
	2	-5	-12	35751	2335	32206	-2.21	-1.42	1.0000 
	2	5	-12	31681	2135	32728	0.66	0.75	1.0000 
	2	-5	12	35058	1303	31355	-2.33	1.37	1.0000 
	5	2	12	30816	2927	31832	0.65	-0.57	1.0000 
	2	5	12	32128	1770	33180	0.66	-0.51	1.0000 
	-2	-5	12	29817	1448	30832	0.66	-0.75	1.0000 
	-2	5	12	33938	2333	30485	-2.21	1.42	1.0000 
	-5	-2	12	30192	4332	31229	0.67	-0.72	1.0000 
	-5	2	12	35193	1880	31553	-2.28	1.35	1.0000 
	-2	-5	13	613	418	906	-1.17	0.2	1.0000 
	-2	5	13	504	484	1222	2.76	-0.5	1.0000 
	-5	-2	-13	879	393	1220	-1.14	-0.41	1.0000 
	-2	5	-13	52	255	386	2.76	0.64	1.0000 
	-2	-5	-13	779	416	1113	-1.13	-0.68	1.0000 
	2	5	-13	754	269	1075	-1.17	-0.2	1.0000 
	2	-5	-13	498	300	1213	2.76	0.5	1.0000 
	5	2	13	596	379	881	-1.14	0.41	1.0000 
	2	-5	13	75	281	446	2.76	-0.64	1.0000 
	2	5	13	730	362	1055	-1.13	0.68	1.0000 
	-2	-5	13	707	240	1019	-1.17	0.2	1.0000 
	-2	5	13	569	258	1322	2.76	-0.5	1.0000 
	-5	-2	13	1136	532	1540	-1.18	0.47	1.0000 
	-5	2	13	667	351	1470	2.75	-0.58	1.0000 
	-2	5	14	53189	3227	54183	-0.49	0.92	1.0000 
	-2	-5	14	45427	3188	52343	-3.45	-0.37	1.0000 
	-5	-2	14	43976	3156	50735	-3.43	-0.27	1.0000 
	-5	-2	-14	45154	3282	52099	-3.48	0.23	1.0000 
	-2	-5	-14	46837	3177	53858	-3.46	0.14	1.0000 
	2	-5	-14	54364	3168	55369	-0.49	-0.92	1.0000 
	5	2	14	46434	3252	53474	-3.48	-0.23	1.0000 
	2	-5	14	50693	2683	51786	-0.55	0.88	1.0000 
	2	5	14	47011	3253	54044	-3.46	-0.14	1.0000 
	-2	-5	14	46453	3171	53444	-3.45	-0.37	1.0000 
	-2	5	14	50549	5119	51517	-0.49	0.92	1.0000 
	-5	-2	14	43479	3149	50201	-3.43	-0.27	1.0000 
	-5	2	14	47829	3904	48891	-0.55	0.89	1.0000 
	-2	5	15	62	289	274	1.91	-0.71	1.0000 
	-2	-5	15	2	143	102	-2.26	0.71	1.0000 
	-5	-2	15	67	155	346	-2.23	0.87	1.0000 
	-5	2	15	292	216	674	1.92	-0.65	1.0000 
	-2	5	-15	19	123	164	1.9	0.59	1.0000 
	-5	-2	-15	6	297	77	-2.25	-0.77	1.0000 
	-5	2	-15	152	217	440	1.88	0.67	1.0000 
	-2	-5	-15	43	285	285	-2.21	-0.91	1.0000 
	2	5	-15	8	178	168	-2.26	-0.71	1.0000 
	2	-5	-15	7	177	111	1.91	0.71	1.0000 
	5	2	15	18	173	211	-2.25	0.77	1.0000 
	2	-5	15	38	196	216	1.9	-0.59	1.0000 
	2	5	15	164	266	541	-2.21	0.91	1.0000 
	-2	5	15	29	189	195	1.91	-0.71	1.0000 
	-2	-5	15	107	145	434	-2.26	0.71	1.0000 
	-5	2	15	274	209	646	1.92	-0.65	1.0000 
	-5	-2	15	137	339	494	-2.23	0.87	1.0000 
	-2	-5	16	47178	2493	43142	-2.1	-0.19	1.0000 
	-2	5	16	40797	3824	39861	-0.5	-0.65	1.0000 
	-5	-2	16	46952	2846	42978	-2.07	-0.13	1.0000 
	-5	2	16	43375	3683	42332	-0.54	-0.67	1.0000 
	-5	-2	-16	45680	4171	41647	-2.13	0.16	1.0000 
	-5	2	-16	43909	2852	42898	-0.52	0.8	1.0000 
	-2	-5	-16	46291	3355	42293	-2.1	0.12	1.0000 
	2	5	-16	46010	4877	42025	-2.1	0.19	1.0000 
	2	-5	-16	44949	3364	43966	-0.5	0.65	1.0000 
	5	2	16	49617	4517	45410	-2.13	-0.16	1.0000 
	2	-5	16	39082	2156	38099	-0.54	-0.79	1.0000 
	2	5	16	47357	3417	43312	-2.1	-0.12	1.0000 
	-2	-5	16	49363	2863	45232	-2.1	-0.19	1.0000 
	-2	5	16	44527	4134	43549	-0.5	-0.65	1.0000 
	-5	-2	16	46721	2865	42757	-2.07	-0.13	1.0000 
	-5	2	16	43341	3811	42298	-0.54	-0.67	1.0000 
	-2	-5	17	912	437	905	0.06	-0.75	1.0000 
	-2	5	17	1353	615	1005	-1.14	-0.5	1.0000 
	-5	-2	17	2019	591	1986	0.12	-0.7	1.0000 
	-5	2	17	2948	774	2415	-1.16	-0.41	1.0000 
	-5	-2	-17	1315	884	1314	0.03	0.67	1.0000 
	-5	2	-17	2379	689	1916	-1.13	0.49	1.0000 
	-2	-5	-17	1030	338	1013	0.08	0.62	1.0000 
	2	5	-17	1678	363	1672	0.06	0.75	1.0000 
	2	-5	-17	1991	465	1565	-1.14	0.5	1.0000 
	5	2	17	1840	684	1841	0.03	-0.67	1.0000 
	5	-2	17	1457	696	1099	-1.13	-0.49	1.0000 
	2	5	17	1202	317	1185	0.08	-0.62	1.0000 
	-2	-5	17	1444	360	1438	0.06	-0.75	1.0000 
	-2	5	17	2350	459	1885	-1.14	-0.5	1.0000 
	-5	-2	17	2306	586	2272	0.12	-0.7	1.0000 
	-5	2	17	2414	477	1934	-1.16	-0.41	1.0000 
	-2	-5	18	45758	2446	40911	2.57	0.38	1.0000 
	-2	5	18	47899	2852	43070	2.51	0.08	1.0000 
	-5	2	18	44355	2729	39752	2.48	0.1	1.0000 
	-5	-2	-18	43365	4874	38637	2.58	-0.46	1.0000 
	-5	2	-18	43834	4483	39283	2.47	0	1.0000 
	-2	-5	-18	46937	3619	42054	2.55	-0.47	1.0000 
	2	5	-18	42692	4094	38015	2.57	-0.38	1.0000 
	2	-5	-18	49655	3378	44736	2.51	-0.08	1.0000 
	5	2	18	47411	5267	42461	2.58	0.46	1.0000 
	5	-2	18	41367	7202	36950	2.47	0	1.0000 
	2	5	18	47624	6185	42704	2.55	0.47	1.0000 
	-2	-5	18	46444	2487	41560	2.57	0.38	1.0000 
	-2	5	18	46905	4175	42128	2.51	0.08	1.0000 
	-5	2	18	44725	2858	40102	2.48	0.1	1.0000 
	-5	-2	-18	46569	2243	41664	2.58	-0.46	1.0000 
	2	-5	18	44576	2932	39994	2.47	0.04	1.0000 
	-2	-5	18	43337	4094	38624	2.57	0.38	1.0000 
	-5	-2	-18	49154	3303	44111	2.58	-0.46	1.0000 
	-2	5	19	462	366	548	-0.42	0.98	1.0000 
	-2	-5	19	340	252	409	0.28	-2.47	1.0000 
	-5	2	19	637	576	758	-0.48	1.04	1.0000 
	-5	-2	-19	530	260	649	0.27	2.54	1.0000 
	-5	2	-19	515	420	598	-0.37	-1.09	1.0000 
	-2	-5	-19	477	257	586	0.28	2.53	1.0000 
	2	-5	-19	749	217	863	-0.42	-0.98	1.0000 
	5	2	19	476	424	581	0.27	-2.54	1.0000 
	5	-2	19	183	214	224	-0.37	1.09	1.0000 
	2	5	19	488	305	599	0.28	-2.53	1.0000 
	-2	5	19	752	318	866	-0.42	0.98	1.0000 
	-2	-5	19	659	191	808	0.28	-2.47	1.0000 
	-5	2	19	904	412	1051	-0.48	1.04	1.0000 
	-5	-2	-19	470	276	574	0.27	2.54	1.0000 
	-5	2	-19	619	218	713	-0.37	-1.09	1.0000 
	5	2	-19	674	218	830	0.29	2.49	1.0000 
	5	-2	-19	833	258	974	-0.48	-1.04	1.0000 
	2	-5	19	871	185	1009	-0.45	1.15	1.0000 
	-2	-5	19	894	195	1086	0.28	-2.47	1.0000 
	2	-5	-19	606	142	707	-0.42	-0.98	1.0000 
	-5	-2	-19	741	205	906	0.27	2.54	1.0000 
	-2	5	20	21932	3555	23021	0.8	0.2	1.0000 
	-5	2	20	24954	5523	26125	0.8	0.3	1.0000 
	-5	-2	-20	15891	5617	17790	1.61	-0.37	1.0000 
	-5	2	-20	19660	5820	20657	0.77	-0.26	1.0000 
	-2	-5	-20	13473	4655	15207	1.6	-0.3	1.0000 
	2	-5	-20	28048	3994	29278	0.8	-0.2	1.0000 
	5	2	20	19529	5256	21629	1.61	0.37	1.0000 
	5	-2	20	21366	3533	22405	0.77	0.26	1.0000 
	2	5	20	22332	5364	24550	1.6	0.3	1.0000 
	-2	5	20	25275	5053	26443	0.8	0.2	1.0000 
	-5	2	20	25862	5102	27053	0.8	0.3	1.0000 
	-5	-2	-20	21254	2777	23443	1.61	-0.37	1.0000 
	-5	2	-20	21495	3152	22537	0.77	-0.26	1.0000 
	-2	-5	-20	21442	2495	23617	1.6	-0.3	1.0000 
	2	-5	-20	19470	2793	20497	0.8	-0.2	1.0000 
	5	-2	-20	22478	2314	23590	0.8	-0.3	1.0000 
	2	-5	20	24777	2741	25914	0.78	0.37	1.0000 
	-2	-5	20	22858	3437	25139	1.62	0.32	1.0000 
	2	-5	-20	20699	3113	21757	0.8	-0.2	1.0000 
	-2	-5	-20	18881	3131	20925	1.6	-0.3	1.0000 
	-5	-2	-20	26233	3823	28659	1.61	-0.37	1.0000 
	2	-5	-20	19776	2640	20810	0.8	-0.2	1.0000 
	-2	5	21	57	187	23	2.71	0.29	1.0000 
	-5	2	21	9	173	225	2.69	0.34	1.0000 
	-5	-2	-21	46	194	31	-2	1.75	1.0000 
	-5	2	-21	6	195	103	2.73	-0.25	1.0000 
	-2	-5	-21	22	100	64	-2.05	1.68	1.0000 
	2	-5	-21	22	180	283	2.71	-0.29	1.0000 
	5	2	21	12	260	101	-2	-1.75	1.0000 
	5	-2	21	154	170	-39	2.73	0.25	1.0000 
	2	5	21	42	148	34	-2.05	-1.68	1.0000 
	-2	5	21	2	70	125	2.71	0.29	1.0000 
	-5	2	21	6	169	207	2.69	0.34	1.0000 
	-5	-2	-21	46	143	31	-2	1.75	1.0000 
	-5	2	-21	10	118	89	2.73	-0.25	1.0000 
	-2	-5	-21	10	71	155	-2.05	1.68	1.0000 
	2	-5	-21	2	109	173	2.71	-0.29	1.0000 
	5	-2	-21	2	96	179	2.69	-0.34	1.0000 
	2	-5	21	2	106	171	2.7	0.31	1.0000 
	-2	-5	21	40	99	287	-1.98	-1.73	1.0000 
	2	-5	-21	7	114	216	2.71	-0.29	1.0000 
	-2	-5	-21	29	158	257	-2.05	1.68	1.0000 
	-5	-2	-21	71	106	377	-2	1.75	1.0000 
	2	-5	-21	73	164	431	2.71	-0.29	1.0000 
	-2	5	22	3293	3066	3814	-0.98	1.04	1.0000 
	-5	-2	22	10963	2087	11140	-0.18	0.8	1.0000 
	-5	2	22	8867	2168	9698	-0.95	1.11	1.0000 
	-5	-2	-22	5379	2311	5502	-0.19	-0.66	1.0000 
	-5	2	-22	7021	2081	7793	-0.99	-1.11	1.0000 
	-2	-5	-22	8869	1636	9043	-0.21	-0.62	1.0000 
	2	-5	-22	8502	1662	9342	-0.98	-1.04	1.0000 
	5	2	22	7329	2218	7473	-0.19	0.66	1.0000 
	5	-2	22	4020	2059	4603	-0.99	1.11	1.0000 
	2	5	22	8068	1968	8233	-0.21	0.62	1.0000 
	-2	5	22	8415	1956	9250	-0.98	1.04	1.0000 
	-5	2	22	8366	1938	9173	-0.95	1.11	1.0000 
	-5	-2	22	10463	1830	10635	-0.18	0.8	1.0000 
	-5	-2	-22	7338	2273	7483	-0.19	-0.66	1.0000 
	-5	2	-22	6452	1941	7192	-0.99	-1.11	1.0000 
	-2	-5	-22	8186	1683	8353	-0.21	-0.62	1.0000 
	2	-5	-22	7344	1582	8124	-0.98	-1.04	1.0000 
	5	-2	-22	8388	1991	9196	-0.95	-1.11	1.0000 
	2	-5	22	9880	2009	10773	-0.96	1.18	1.0000 
	-2	-5	22	8778	1568	8923	-0.17	0.84	1.0000 
	2	-5	-22	6996	1384	7757	-0.98	-1.04	1.0000 
	-2	-5	-22	7779	1402	7941	-0.21	-0.62	1.0000 
	-5	-2	-22	10832	1987	11009	-0.19	-0.66	1.0000 
	2	-5	-22	7519	1329	8309	-0.98	-1.04	1.0000 
	-2	5	23	235	116	5	-3.73	1.1	1.0000 
	-5	-2	23	66	133	190	0.35	1.35	1.0000 
	-5	2	23	60	177	99	-3.74	1.04	1.0000 
	-5	2	-23	309	209	-29	-3.75	-1.05	1.0000 
	-2	-5	-23	34	234	-15	0.26	-1.27	1.0000 
	2	-5	-23	308	232	-18	-3.73	-1.1	1.0000 
	5	-2	-23	28	165	157	-3.74	-1.04	1.0000 
	5	2	-23	40	324	-36	0.35	-1.35	1.0000 
	5	2	23	54	127	154	0.31	1.24	1.0000 
	5	-2	23	309	223	-3	-3.75	1.05	1.0000 
	2	5	23	34	238	-1	0.26	1.27	1.0000 
	-2	5	23	14	187	207	-3.73	1.1	1.0000 
	-5	-2	23	17	201	89	0.35	1.35	1.0000 
	-5	2	23	82	145	74	-3.74	1.04	1.0000 
	-5	-2	-23	33	101	-22	0.31	-1.24	1.0000 
	-5	2	-23	106	86	54	-3.75	-1.05	1.0000 
	-2	-5	-23	94	108	222	0.26	-1.27	1.0000 
	2	-5	-23	42	66	129	-3.73	-1.1	1.0000 
	5	-2	-23	70	89	87	-3.74	-1.04	1.0000 
	2	-5	23	4	150	293	-3.75	1.02	1.0000 
	-2	-5	23	7	91	59	0.41	1.32	1.0000 
	2	-5	-23	41	84	130	-3.73	-1.1	1.0000 
	-2	-5	-23	38	102	125	0.26	-1.27	1.0000 
	-5	-2	-23	104	189	236	0.31	-1.24	1.0000 
	2	-5	-23	10	173	229	-3.73	-1.1	1.0000 
	-5	-2	-24	4025	1622	3995	0.05	-0.42	1.0000 
	-5	2	-24	4461	1261	3692	1.34	0.15	1.0000 
	-2	-5	-24	4826	1443	4816	0.01	-0.35	1.0000 
	2	-5	-24	5539	1312	4696	1.31	0.16	1.0000 
	5	-2	-24	6198	1469	5274	1.35	0.11	1.0000 
	2	-5	24	7144	1857	6124	1.39	-0.13	1.0000 
	-2	-5	24	5518	1500	5469	0.08	0.49	1.0000 
	2	-5	-24	5201	1249	4385	1.31	0.16	1.0000 
	-2	-5	-24	4898	1379	4888	0.01	-0.35	1.0000 
	-5	-2	-24	6272	1808	6235	0.05	-0.42	1.0000 
	2	-5	-24	5860	1344	4992	1.31	0.16	1.0000 
	-5	-2	-25	9438	2895	9802	0.41	0.54	1.0000 
	-5	2	-25	8612	2552	9629	-1.13	-1.72	1.0000 
	-2	-5	-25	11073	2321	11432	0.37	0.57	1.0000 
	2	-5	-25	10916	2463	12046	-1.11	-1.68	1.0000 
	5	-2	-25	10813	2964	11973	-1.14	-1.76	1.0000 
	-2	-5	25	11813	2150	12243	0.43	-0.51	1.0000 
	2	-5	25	14351	3131	15707	-1.15	1.81	1.0000 
	2	-5	-25	7974	1842	8936	-1.11	-1.68	1.0000 
	-2	-5	-25	10959	1961	11316	0.37	0.57	1.0000 
	-5	-2	-25	14373	2612	14822	0.41	0.54	1.0000 
	2	-5	-25	11592	2168	12757	-1.11	-1.68	1.0000 
	-5	-2	-26	350	286	547	-1.02	-0.35	1.0000 
	-5	2	-26	874	288	816	0.23	-0.08	1.0000 
	-2	-5	-26	916	378	1218	-1.01	-0.29	1.0000 
	2	-5	-26	1068	336	1009	0.22	-0.18	1.0000 
	5	-2	-26	1170	382	1113	0.2	-0.17	1.0000 
	-2	-5	26	1016	402	1339	-1.02	0.33	1.0000 
	2	-5	-26	781	210	731	0.22	-0.18	1.0000 
	-2	-5	-26	564	254	805	-1.01	-0.29	1.0000 
	-5	-2	-26	410	234	622	-1.02	-0.35	1.0000 
	2	-5	-26	1052	310	994	0.22	-0.18	1.0000 
	5	-2	-26	1078	351	1023	0.2	-0.17	1.0000 
	-5	-2	-27	1373	735	2104	-1.95	-0.54	1.0000 
	-5	2	-27	1619	757	1956	0.88	0.2	1.0000 
	-2	-5	-27	1391	756	2123	-1.94	-0.52	1.0000 
	2	-5	-27	1883	734	2262	0.92	0.3	1.0000 
	5	-2	-27	1979	742	2372	0.93	0.26	1.0000 
	-2	-5	27	1266	627	1976	-1.96	0.67	1.0000 
	2	-5	-27	1003	396	1284	0.92	0.3	1.0000 
	-5	-2	-27	1451	689	2200	-1.95	-0.54	1.0000 
	-2	-5	-27	1235	604	1928	-1.94	-0.52	1.0000 
	2	-5	-27	1699	655	2060	0.92	0.3	1.0000 
	5	-2	-27	2572	889	3018	0.93	0.26	1.0000 
	-5	-2	-28	75	150	99	0.34	-0.83	1.0000 
	-5	2	-28	11	88	59	1.45	-0.53	1.0000 
	-2	-5	-28	19	86	-18	0.34	-0.91	1.0000 
	2	-5	-28	26	83	106	1.42	-0.56	1.0000 
	5	-2	-28	27	204	107	1.41	-0.61	1.0000 
	-5	-2	-28	113	164	145	0.34	-0.83	1.0000 
	2	-5	-28	48	260	-3	1.42	-0.56	1.0000 
	5	-2	-28	11	167	53	1.41	-0.61	1.0000 
	-5	-2	-29	22	127	69	0.96	-0.84	1.0000 
	-5	2	-29	26	97	53	-0.89	1.33	1.0000 
	2	-5	-29	212	166	365	-0.88	1.32	1.0000 
	5	-2	-29	83	137	171	-0.87	1.26	1.0000 
	2	-5	-29	326	296	518	-0.88	1.32	1.0000 
	5	-2	-29	102	161	202	-0.87	1.26	1.0000 
	-5	-2	-30	1720	926	1946	0.62	0.45	1.0000 
	-5	2	-30	2742	701	2218	-1.29	-0.65	1.0000 
	2	-5	-30	2690	663	2164	-1.32	-0.69	1.0000 
	5	-2	-30	3054	757	2475	-1.35	-0.67	1.0000 
	2	-5	-30	2046	621	1589	-1.32	-0.69	1.0000 
	5	-2	-30	2284	673	1786	-1.35	-0.67	1.0000 
	-5	-2	-31	456	252	366	0.51	0.4	1.0000 
	-5	2	-31	390	144	277	-0.72	0.72	1.0000 
	2	-5	-31	568	230	438	-0.69	0.72	1.0000 
	5	-2	-31	507	226	385	-0.68	0.72	1.0000 
	5	-2	-31	539	290	414	-0.68	0.72	1.0000 
	-5	-2	-32	2166	863	2015	0.41	0.34	1.0000 
	-5	2	-32	2869	749	2192	1.52	0.14	1.0000 
	5	-2	-32	4028	1012	3218	1.52	0.14	1.0000 
	5	-2	-32	3713	873	2937	1.52	0.14	1.0000 
	-5	-2	-33	40	231	-25	-1.39	-0.08	1.0000 
	-5	2	-33	66	185	-65	1.67	-0.65	1.0000 
	2	-5	-33	65	211	-148	1.66	-0.64	1.0000 
	5	-2	-33	3	112	41	1.69	-0.59	1.0000 
	5	-2	-33	100	198	326	1.69	-0.59	1.0000 
	-5	-2	-34	3159	978	2975	-0.35	0.38	1.0000 
	-5	2	-34	2425	617	2045	-0.87	0.43	1.0000 
	5	-2	-34	4058	1124	3571	-0.85	0.43	1.0000 
	5	2	-34	3297	925	3100	-0.37	0.41	1.0000 
	5	-2	-34	2941	745	2529	-0.85	0.43	1.0000 
	-5	2	-35	716	317	755	0.16	0.44	1.0000 
	-5	-2	-35	865	418	983	-0.39	-0.78	1.0000 
	5	-2	-35	1841	688	1907	0.16	0.46	1.0000 
	5	2	-35	1164	452	1296	-0.37	-0.81	1.0000 
	5	-2	-35	1185	484	1237	0.16	0.46	1.0000 
	5	2	-35	735	362	838	-0.37	-0.81	1.0000 
	-3	5	0	27445	1308	25310	-1.46	-0.03	1.0000 
	-3	-5	0	27693	1350	26571	-0.74	0.48	1.0000 
	-5	-3	0	27683	1588	26558	-0.75	0.2	1.0000 
	-3	-5	0	28496	1349	27358	-0.74	0.48	1.0000 
	-5	-3	0	27716	1563	26590	-0.75	0.2	1.0000 
	-3	5	0	28531	1259	26353	-1.46	-0.03	1.0000 
	-5	-3	0	28811	1637	27663	-0.75	0.2	1.0000 
	-3	-5	0	29217	1419	28065	-0.74	0.48	1.0000 
	-3	5	1	9774	811	12923	-3.23	-1.54	1.0000 
	-5	-3	1	10081	1191	14138	4.1	0.01	1.0000 
	-5	3	-1	11827	1843	15355	-3.33	1	1.0000 
	-3	-5	1	9977	1017	13995	4.08	0.07	1.0000 
	-3	-5	-1	9781	1048	13791	4.1	-0.32	1.0000 
	-3	-5	1	9986	990	14006	4.08	0.07	1.0000 
	-5	3	-1	11993	1628	15544	-3.33	1	1.0000 
	-5	-3	1	10262	1206	14352	4.1	0.01	1.0000 
	-3	-5	-1	9221	986	13125	4.1	-0.32	1.0000 
	-3	5	1	9077	1299	12118	-3.23	-1.54	1.0000 
	-3	-5	1	9988	914	14008	4.08	0.07	1.0000 
	-5	-3	1	10085	1216	14142	4.1	0.01	1.0000 
	-5	3	-1	10977	1618	14383	-3.33	1	1.0000 
	-5	-3	-1	10281	1722	14343	4.07	-0.4	1.0000 
	-3	-5	-1	9534	988	13497	4.1	-0.32	1.0000 
	-3	5	2	18440	1159	12711	5.18	-0.96	1.0000 
	-5	3	-2	20414	1628	14333	5.19	0.78	1.0000 
	-5	-3	2	18287	1616	13406	4.29	0.62	1.0000 
	-3	-5	2	18913	948	13932	4.29	0.76	1.0000 
	-3	-5	-2	18438	926	13524	4.3	-0.68	1.0000 
	-3	-5	2	18792	1023	13828	4.29	0.76	1.0000 
	-5	3	-2	20537	1061	14436	5.19	0.78	1.0000 
	-5	-3	2	19133	1447	14132	4.29	0.62	1.0000 
	-3	-5	-2	18739	895	13782	4.3	-0.68	1.0000 
	5	3	2	21216	1921	15913	4.3	0.82	1.0000 
	-3	5	2	20047	1187	14052	5.18	-0.96	1.0000 
	-3	5	-2	20513	1011	14493	5.13	0.98	1.0000 
	-3	-5	2	20390	1008	15204	4.29	0.76	1.0000 
	-3	-5	-2	20221	947	15057	4.3	-0.68	1.0000 
	-5	3	-2	21873	1088	15561	5.19	0.78	1.0000 
	-5	-3	2	20841	1166	15605	4.29	0.62	1.0000 
	-3	5	3	221	997	2789	8.38	0.59	1.0000 
	-3	-5	3	563	986	3936	-8.64	-0.45	1.0000 
	-3	5	-3	400	563	3340	8.37	0.11	1.0000 
	-5	-3	3	492	1536	3737	-8.63	-0.32	1.0000 
	-5	3	-3	780	1455	4310	8.36	-0.03	1.0000 
	-3	-5	-3	122	1153	2518	-8.7	1.08	1.0000 
	-5	-3	3	437	1375	3582	-8.63	-0.32	1.0000 
	-3	-5	3	680	987	4235	-8.64	-0.45	1.0000 
	-5	3	-3	684	1657	4081	8.36	-0.03	1.0000 
	-5	-3	-3	294	1634	3188	-8.71	1.22	1.0000 
	-3	-5	-3	256	1135	3054	-8.7	1.08	1.0000 
	3	5	3	442	532	3641	-8.7	-1.08	1.0000 
	-3	5	3	403	1097	3368	8.38	0.59	1.0000 
	-3	5	-3	536	555	3712	8.37	0.11	1.0000 
	-3	-5	3	716	641	4325	-8.64	-0.45	1.0000 
	-5	-3	3	692	1760	4258	-8.63	-0.32	1.0000 
	-5	3	-3	742	1533	4220	8.36	-0.03	1.0000 
	-3	5	4	19628	1083	15075	-3.92	-2.71	1.0000 
	-3	5	-4	20244	848	15659	-3.87	2.59	1.0000 
	-3	-5	4	18104	1659	16926	-0.99	0.07	1.0000 
	-5	3	-4	21328	1365	16554	-3.91	2.49	1.0000 
	-5	3	-4	21564	1606	16763	-3.91	2.49	1.0000 
	-3	-5	-4	16034	1263	14871	-1.05	-0.21	1.0000 
	-5	-3	-4	16905	1921	15749	-1.01	-0.08	1.0000 
	5	3	4	17956	1124	16764	-1.01	0.08	1.0000 
	3	5	4	17407	1503	16194	-1.05	0.21	1.0000 
	-3	5	4	20547	1162	15885	-3.92	-2.71	1.0000 
	-3	5	-4	20400	881	15797	-3.87	2.59	1.0000 
	-3	-5	4	18690	1676	17493	-0.99	0.07	1.0000 
	-5	3	-4	22715	1853	17783	-3.91	2.49	1.0000 
	-3	5	5	2325	521	1764	-1.39	0.7	1.0000 
	-3	5	-5	1682	382	1201	-1.43	-1.11	1.0000 
	-3	-5	5	3244	516	2038	2.62	0.49	1.0000 
	-5	3	-5	2389	684	1838	-1.37	-1.12	1.0000 
	-3	5	-5	1751	386	1260	-1.43	-1.11	1.0000 
	-3	-5	-5	2279	483	1333	2.53	-0.98	1.0000 
	3	5	5	2365	441	1400	2.53	0.98	1.0000 
	-3	5	5	1788	329	1300	-1.39	0.7	1.0000 
	-3	-5	5	2602	446	1536	2.62	0.49	1.0000 
	-3	5	-5	1676	311	1196	-1.43	-1.11	1.0000 
	-5	3	-5	2126	515	1606	-1.37	-1.12	1.0000 
	-3	5	6	14757	1958	14783	-0.03	0.84	1.0000 
	-3	-5	6	17226	1370	15507	1.6	2.61	1.0000 
	-3	5	-6	12542	1855	12628	-0.09	-0.78	1.0000 
	-5	3	-6	15124	1119	15093	0.02	-0.67	1.0000 
	-3	5	-6	14276	753	14368	-0.09	-0.78	1.0000 
	-5	3	-6	15646	1134	15615	0.02	-0.67	1.0000 
	-3	-5	-6	16855	1113	15405	1.44	-3.19	1.0000 
	5	-3	6	16846	2030	16814	0.02	0.67	1.0000 
	3	5	6	16924	1486	15472	1.44	3.19	1.0000 
	-3	5	6	14955	1353	14981	-0.03	0.84	1.0000 
	-3	-5	6	17039	1406	15329	1.6	2.61	1.0000 
	-3	5	-6	14008	1276	14099	-0.09	-0.78	1.0000 
	-3	5	7	4594	799	3558	1.92	1.51	1.0000 
	-3	-5	7	6966	814	4258	-4.6	2.25	1.0000 
	-3	5	-7	3125	785	2264	2	-1.88	1.0000 
	-3	5	-7	2789	750	1975	2	-1.88	1.0000 
	-3	-5	-7	5456	1011	3211	-4.75	-3.08	1.0000 
	3	5	7	5655	807	3371	-4.75	3.08	1.0000 
	-3	5	7	4302	654	3300	1.92	1.51	1.0000 
	-3	-5	7	5972	918	3474	-4.6	2.25	1.0000 
	-3	5	-7	2775	622	1963	2	-1.88	1.0000 
	-3	-5	8	33007	1935	41515	4.88	-0.57	1.0000 
	-3	5	-8	32633	1616	39486	3.95	-1.9	1.0000 
	-3	5	-8	34470	1663	41506	3.95	-1.9	1.0000 
	3	5	8	34399	2178	43001	4.85	-0.33	1.0000 
	-3	-5	8	32650	1860	41114	4.88	-0.57	1.0000 
	-3	5	-8	31510	1567	38249	3.95	-1.9	1.0000 
	-3	-5	9	18313	1273	20760	-1.91	-1.39	1.0000 
	-3	5	-9	12482	1795	16931	4.07	-0.12	1.0000 
	-3	5	-9	14684	1223	19481	4.07	-0.12	1.0000 
	-5	3	-9	15994	2163	20905	4.01	-0.2	1.0000 
	5	-3	9	15666	1287	20530	4.01	0.2	1.0000 
	3	5	9	18807	1266	21386	-1.99	-1.26	1.0000 
	-3	-5	9	18505	2228	20965	-1.91	-1.39	1.0000 
	-3	5	-9	13426	1854	18028	4.07	-0.12	1.0000 
	-3	5	10	82	198	289	-5.51	-1.7	1.0000 
	-3	-5	10	335	84	103	-6.18	0.93	1.0000 
	-3	5	-10	486	86	20	-5.59	1.78	1.0000 
	-3	5	-10	436	66	32	-5.59	1.78	1.0000 
	-5	-3	-10	195	189	218	-6.21	-0.86	1.0000 
	-5	3	-10	207	150	139	-5.54	1.69	1.0000 
	-3	-5	-10	373	180	83	-6.2	-0.84	1.0000 
	3	-5	10	472	70	23	-5.59	-1.78	1.0000 
	5	-3	10	223	184	126	-5.54	-1.69	1.0000 
	3	5	10	176	67	238	-6.2	0.84	1.0000 
	5	3	10	95	157	373	-6.21	0.86	1.0000 
	-3	5	10	38	145	396	-5.51	-1.7	1.0000 
	-3	-5	10	281	70	138	-6.18	0.93	1.0000 
	-3	5	11	88	107	113	0.25	-0.35	1.0000 
	-3	-5	11	72	103	135	3	-2.05	1.0000 
	-5	3	-11	18	133	29	0.23	0.53	1.0000 
	-3	5	-11	25	86	37	0.21	0.43	1.0000 
	-3	-5	-11	201	130	5	2.95	1.98	1.0000 
	-5	-3	-11	67	165	218	2.94	2.06	1.0000 
	3	-5	-11	72	77	95	0.25	0.35	1.0000 
	3	-5	11	6	47	10	0.21	-0.43	1.0000 
	5	-3	11	23	147	37	0.23	-0.53	1.0000 
	3	5	11	111	132	51	2.95	-1.98	1.0000 
	5	3	11	67	126	180	2.94	-2.06	1.0000 
	-3	5	11	97	58	123	0.25	-0.35	1.0000 
	-3	-5	11	90	130	85	3	-2.05	1.0000 
	-3	5	12	7789	2252	7198	0.76	1.49	1.0000 
	-3	-5	12	5201	1623	6220	-1.41	2.82	1.0000 
	-5	3	-12	7223	2140	6650	0.76	-1.49	1.0000 
	-3	5	-12	1412	1581	1146	0.74	-1.5	1.0000 
	-3	-5	-12	5298	1642	6404	-1.52	-2.79	1.0000 
	-5	-3	-12	5751	2170	6882	-1.47	-2.9	1.0000 
	3	-5	-12	8329	1487	7719	0.76	-1.49	1.0000 
	5	-3	12	7345	2057	6768	0.76	1.49	1.0000 
	3	-5	12	5773	1511	5269	0.74	1.5	1.0000 
	3	5	12	5340	2539	6451	-1.52	2.79	1.0000 
	5	3	12	6943	2842	8198	-1.47	2.9	1.0000 
	-3	5	12	8739	1811	8115	0.76	1.49	1.0000 
	-3	-5	12	7277	1404	8503	-1.41	2.82	1.0000 
	-3	5	13	7032	1796	5736	1.83	-0.83	1.0000 
	-3	-5	13	5833	1456	5032	-1.23	-0.79	1.0000 
	-5	-3	13	7802	2122	6889	-1.21	-0.84	1.0000 
	-5	3	-13	6640	1944	5396	1.81	0.88	1.0000 
	-3	5	-13	3153	1301	2332	1.77	1.14	1.0000 
	-3	-5	-13	6102	1802	5284	-1.22	0.69	1.0000 
	-5	-3	-13	6188	1749	5342	-1.25	0.65	1.0000 
	3	-5	-13	6896	1613	5613	1.83	0.83	1.0000 
	5	-3	13	6018	1319	4836	1.81	-0.88	1.0000 
	3	-5	13	3282	1427	2444	1.77	-1.14	1.0000 
	3	5	13	5423	1855	4653	-1.22	-0.69	1.0000 
	5	3	13	7631	1797	6689	-1.25	-0.65	1.0000 
	-3	5	13	7306	1606	5984	1.83	-0.83	1.0000 
	-3	-5	13	7474	1260	6565	-1.23	-0.79	1.0000 
	-5	-3	13	9009	1979	8027	-1.21	-0.84	1.0000 
	-3	5	14	14200	4231	16797	2.2	1.69	1.0000 
	-3	-5	14	8981	3785	13103	4.33	0.76	1.0000 
	-5	-3	14	15667	3394	20962	4.32	0.59	1.0000 
	-5	3	-14	15102	1908	17725	2.16	-1.65	1.0000 
	-3	5	-14	9568	2326	11697	2.18	-1.79	1.0000 
	-3	-5	-14	12996	1667	17848	4.31	-0.77	1.0000 
	-5	-3	-14	11069	4138	15615	4.33	-0.89	1.0000 
	3	-5	-14	14134	3996	16725	2.2	-1.69	1.0000 
	5	-3	14	14352	1735	16910	2.16	1.65	1.0000 
	3	-5	14	13873	1122	16427	2.18	1.79	1.0000 
	3	5	14	15552	3125	20824	4.31	0.77	1.0000 
	5	3	14	12947	2066	17833	4.33	0.89	1.0000 
	-3	-5	14	12406	2853	17184	4.33	0.76	1.0000 
	-3	5	14	15319	3780	18013	2.2	1.69	1.0000 
	-5	-3	14	14790	3249	19945	4.32	0.59	1.0000 
	-3	5	15	5008	1355	3773	-2.08	-0.86	1.0000 
	-3	-5	15	4244	1140	2855	2.59	-0.4	1.0000 
	-5	-3	15	7631	947	5735	2.58	-0.49	1.0000 
	-5	3	-15	6180	1215	4815	-2.06	0.89	1.0000 
	-3	-5	-15	5964	916	4310	2.56	0.4	1.0000 
	-5	-3	-15	5575	1466	3967	2.59	0.34	1.0000 
	3	5	-15	6226	920	4515	2.59	0.4	1.0000 
	3	-5	-15	4507	1393	3339	-2.08	0.86	1.0000 
	5	-3	15	4583	1225	3417	-2.06	-0.89	1.0000 
	3	5	15	7442	1076	5579	2.56	-0.4	1.0000 
	5	3	15	6612	1192	4849	2.59	-0.34	1.0000 
	-3	-5	15	6457	896	4712	2.59	-0.4	1.0000 
	-3	5	15	5751	1161	4423	-2.08	-0.86	1.0000 
	-5	-3	15	7326	803	5471	2.58	-0.49	1.0000 
	-3	5	16	24644	2167	24005	0.44	1.2	1.0000 
	-3	-5	16	24336	1751	26123	-1.26	0.65	1.0000 
	-5	-3	16	24681	4120	26470	-1.25	0.62	1.0000 
	-5	3	-16	21684	6111	21099	0.42	-1.22	1.0000 
	-5	-3	-16	22059	2802	23765	-1.26	-0.68	1.0000 
	-3	-5	-16	23331	2259	25051	-1.24	-0.69	1.0000 
	3	-5	-16	27595	4536	26920	0.44	-1.2	1.0000 
	3	5	-16	23469	2630	25225	-1.26	-0.65	1.0000 
	3	5	16	26625	5955	28461	-1.24	0.69	1.0000 
	5	3	16	22464	5211	24185	-1.26	0.68	1.0000 
	5	-3	16	22799	3326	22200	0.42	1.22	1.0000 
	-3	-5	16	23109	4131	24851	-1.26	0.65	1.0000 
	-3	5	16	28880	4862	28191	0.44	1.2	1.0000 
	-5	-3	16	26282	3640	28128	-1.25	0.62	1.0000 
	-3	-5	17	2966	410	2720	0.53	-0.42	1.0000 
	-3	5	17	2261	632	1876	-0.95	-0.41	1.0000 
	-5	-3	17	3987	528	3722	0.49	-0.45	1.0000 
	-5	3	-17	2741	597	2324	-0.94	0.53	1.0000 
	-3	-5	-17	2604	470	2392	0.5	0.6	1.0000 
	-5	-3	-17	2346	419	2128	0.54	0.54	1.0000 
	3	-5	-17	3153	589	2696	-0.95	0.41	1.0000 
	3	5	-17	2636	415	2404	0.53	0.42	1.0000 
	3	5	17	2728	497	2512	0.5	-0.6	1.0000 
	5	3	17	2696	694	2462	0.54	-0.54	1.0000 
	5	-3	17	1773	591	1440	-0.94	-0.53	1.0000 
	-3	-5	17	2560	449	2332	0.53	-0.42	1.0000 
	-3	5	17	3430	509	2953	-0.95	-0.41	1.0000 
	-5	-3	17	3143	456	2908	0.49	-0.45	1.0000 
	-5	-3	-17	2240	441	2027	0.54	0.54	1.0000 
	-3	-5	17	2941	348	2696	0.53	-0.42	1.0000 
	-5	-3	-17	3386	430	3124	0.54	0.54	1.0000 
	-3	5	18	5801	2151	5399	-0.59	-0.16	1.0000 
	-3	-5	18	4994	1959	3911	-1.9	1.44	1.0000 
	-5	-3	18	11630	1826	9978	-1.89	1.46	1.0000 
	-5	3	-18	8348	1917	7891	-0.56	0.13	1.0000 
	-3	-5	-18	10488	2029	8881	-1.91	-1.25	1.0000 
	-5	-3	-18	8820	1771	7327	-1.94	-1.22	1.0000 
	3	5	-18	8469	1594	7055	-1.9	-1.44	1.0000 
	3	-5	-18	10498	1669	9955	-0.59	0.16	1.0000 
	3	5	18	10005	1980	8436	-1.91	1.25	1.0000 
	5	3	18	9199	2065	7673	-1.94	1.22	1.0000 
	5	-3	18	4878	2279	4530	-0.56	-0.13	1.0000 
	-3	-5	18	8881	1681	7433	-1.9	1.44	1.0000 
	-3	5	18	9617	2035	9098	-0.59	-0.16	1.0000 
	-5	-3	18	12148	1557	10459	-1.89	1.46	1.0000 
	-5	-3	-18	9006	1600	7497	-1.94	-1.22	1.0000 
	5	3	-18	8943	1191	7495	-1.89	-1.46	1.0000 
	3	-5	18	9908	1660	9448	-0.51	-0.07	1.0000 
	-3	-5	18	9720	1339	8204	-1.9	1.44	1.0000 
	3	-5	-18	9636	1150	9116	-0.59	0.16	1.0000 
	-5	-3	-18	11309	1461	9614	-1.94	-1.22	1.0000 
	-3	5	19	6096	1709	3923	3.42	0.78	1.0000 
	-5	-3	19	10868	1313	8144	-3.1	0.06	1.0000 
	-3	-5	-19	10047	1469	7438	-3.1	0.08	1.0000 
	-5	-3	-19	7866	1369	5610	-3.06	0.18	1.0000 
	-5	3	-19	8843	1587	6195	3.39	-0.62	1.0000 
	3	-5	-19	10099	1122	7238	3.42	-0.78	1.0000 
	5	3	19	7506	1624	5307	-3.06	-0.18	1.0000 
	5	-3	19	5604	1658	3542	3.39	0.62	1.0000 
	3	5	19	9729	1533	7165	-3.1	-0.08	1.0000 
	-3	5	19	9353	1092	6608	3.42	0.78	1.0000 
	-5	-3	19	10281	1275	7637	-3.1	0.06	1.0000 
	-5	-3	-19	8213	1190	5904	-3.06	0.18	1.0000 
	-5	3	-19	6568	1150	4317	3.39	-0.62	1.0000 
	-3	-5	-19	7855	1013	5571	-3.1	0.08	1.0000 
	3	-5	-19	7640	932	5181	3.42	-0.78	1.0000 
	5	3	-19	8431	957	6055	-3.1	-0.06	1.0000 
	3	-5	19	10961	1035	8010	3.37	0.65	1.0000 
	-5	-3	19	7404	732	5190	-3.1	0.06	1.0000 
	-3	-5	19	9586	1015	7059	-3.08	-0.06	1.0000 
	3	-5	-19	9370	783	6622	3.42	-0.78	1.0000 
	5	-3	-19	7913	703	5441	3.37	-0.81	1.0000 
	-3	-5	-19	7827	883	5547	-3.1	0.08	1.0000 
	-5	-3	-19	10341	987	7727	-3.06	0.18	1.0000 
	3	-5	-19	7291	697	4894	3.42	-0.78	1.0000 
	-3	5	20	2464	384	932	4.35	-0.5	1.0000 
	-5	-3	20	3062	372	1417	4.04	-0.55	1.0000 
	-3	-5	-20	2697	299	1180	4.04	0.64	1.0000 
	-5	3	-20	2698	263	1073	4.37	0.51	1.0000 
	-5	-3	-20	2769	384	1234	4.03	0.68	1.0000 
	3	-5	-20	3216	380	1418	4.35	0.5	1.0000 
	5	3	20	2375	411	974	4.03	-0.68	1.0000 
	5	-3	20	1785	298	527	4.37	-0.51	1.0000 
	3	5	20	2761	347	1223	4.04	-0.64	1.0000 
	-3	5	20	3186	345	1398	4.35	-0.5	1.0000 
	-5	-3	20	3685	374	1853	4.04	-0.55	1.0000 
	-5	-3	-20	2748	276	1220	4.03	0.68	1.0000 
	-5	3	-20	2312	258	833	4.37	0.51	1.0000 
	-3	-5	-20	2607	296	1120	4.04	0.64	1.0000 
	3	-5	-20	2912	291	1217	4.35	0.5	1.0000 
	5	-3	-20	3037	336	1300	4.37	0.57	1.0000 
	5	3	-20	3171	306	1492	4.04	0.55	1.0000 
	3	-5	20	3672	342	1724	4.39	-0.6	1.0000 
	-3	-5	20	3377	335	1639	4.05	-0.6	1.0000 
	-5	-3	20	2661	238	1147	4.04	-0.55	1.0000 
	3	-5	-20	2895	267	1206	4.35	0.5	1.0000 
	5	-3	-20	3066	238	1319	4.37	0.57	1.0000 
	-3	-5	-20	2598	226	1114	4.04	0.64	1.0000 
	-5	-3	-20	3236	350	1555	4.03	0.68	1.0000 
	3	-5	-20	2895	264	1206	4.35	0.5	1.0000 
	-3	5	21	3065	1420	2703	-0.74	-0.9	1.0000 
	-5	-3	21	6846	1022	5522	1.9	0.87	1.0000 
	-3	-5	-21	6799	1309	5452	1.93	-0.7	1.0000 
	-5	-3	-21	5402	1399	4221	1.91	-0.63	1.0000 
	-5	3	-21	4057	1119	3629	-0.76	0.95	1.0000 
	3	-5	-21	6474	1193	5950	-0.74	0.9	1.0000 
	5	3	21	4981	1459	3850	1.91	0.63	1.0000 
	5	-3	21	2670	1374	2321	-0.76	-0.95	1.0000 
	3	5	21	6479	1329	5166	1.93	0.7	1.0000 
	-3	5	21	6008	1324	5503	-0.74	-0.9	1.0000 
	-5	-3	21	8113	1179	6667	1.9	0.87	1.0000 
	-5	-3	-21	5659	1560	4449	1.91	-0.63	1.0000 
	-5	3	-21	4182	1022	3747	-0.76	0.95	1.0000 
	-3	-5	-21	6537	1169	5218	1.93	-0.7	1.0000 
	3	-5	-21	5910	947	5409	-0.74	0.9	1.0000 
	5	3	-21	7775	1208	6361	1.9	-0.87	1.0000 
	5	-3	-21	6573	1201	6011	-0.79	0.91	1.0000 
	3	-5	21	7940	1480	7326	-0.78	-0.97	1.0000 
	-5	-3	21	5775	831	4563	1.9	0.87	1.0000 
	-3	-5	21	7595	1205	6234	1.84	0.81	1.0000 
	5	-3	-21	4791	804	4311	-0.79	0.91	1.0000 
	3	-5	-21	5634	922	5145	-0.74	0.9	1.0000 
	-3	-5	-21	6506	965	5190	1.93	-0.7	1.0000 
	-5	-3	-21	8380	1307	6894	1.91	-0.63	1.0000 
	3	-5	-21	5746	898	5252	-0.74	0.9	1.0000 
	-3	5	22	199	174	36	2.93	-2.35	1.0000 
	-5	-3	22	294	205	254	0.42	-1.02	1.0000 
	-3	-5	-22	22	241	-12	0.38	0.96	1.0000 
	-5	3	-22	237	152	14	3.01	2.46	1.0000 
	-5	-3	-22	26	264	-33	0.38	1.05	1.0000 
	3	-5	-22	182	205	149	2.93	2.35	1.0000 
	5	3	-22	256	230	217	0.42	1.02	1.0000 
	3	5	22	201	182	166	0.38	-0.96	1.0000 
	5	3	22	220	229	189	0.38	-1.05	1.0000 
	5	-3	22	230	129	18	3.01	-2.46	1.0000 
	-3	5	22	183	184	155	2.93	-2.35	1.0000 
	-5	-3	22	362	181	320	0.42	-1.02	1.0000 
	-5	-3	-22	196	198	165	0.38	1.05	1.0000 
	-5	3	-22	178	112	132	3.01	2.46	1.0000 
	-3	-5	-22	198	133	163	0.38	0.96	1.0000 
	3	-5	-22	201	97	228	2.93	2.35	1.0000 
	5	-3	-22	224	110	317	2.98	2.44	1.0000 
	5	3	-22	357	110	316	0.42	1.02	1.0000 
	-3	-5	22	383	115	346	0.42	-1.09	1.0000 
	5	-3	-22	183	134	174	2.98	2.44	1.0000 
	3	-5	-22	219	180	281	2.93	2.35	1.0000 
	-3	-5	-22	88	83	58	0.38	0.96	1.0000 
	-5	-3	-22	26	212	-93	0.38	1.05	1.0000 
	3	-5	-22	183	115	150	2.93	2.35	1.0000 
	-5	3	-23	2269	1166	2524	-0.56	0.78	1.0000 
	-5	-3	-23	5462	1781	4154	-2.1	-0.97	1.0000 
	-5	3	-23	3390	1278	3703	-0.56	0.78	1.0000 
	-3	-5	-23	5993	1569	4624	-2.09	-1.01	1.0000 
	3	-5	-23	4706	1575	5058	-0.53	0.8	1.0000 
	5	3	-23	7730	1753	6131	-2.14	-0.99	1.0000 
	5	-3	-23	5324	1729	5727	-0.58	0.7	1.0000 
	-5	-3	23	5611	1190	4259	-2.14	0.99	1.0000 
	-3	-5	23	6425	1421	4958	-2.17	0.97	1.0000 
	3	-5	-23	4580	1398	4927	-0.53	0.8	1.0000 
	-3	-5	-23	7600	1625	6050	-2.09	-1.01	1.0000 
	-5	-3	-23	8069	1812	6464	-2.1	-0.97	1.0000 
	3	-5	-23	5440	1596	5819	-0.53	0.8	1.0000 
	-5	-3	-24	873	436	1317	-1.49	0.26	1.0000 
	-5	3	-24	919	416	1205	-0.96	-0.38	1.0000 
	-3	-5	-24	1320	593	1856	-1.49	0.12	1.0000 
	3	-5	-24	1567	576	1962	-1.02	-0.52	1.0000 
	5	-3	-24	1764	624	2187	-1.03	-0.47	1.0000 
	5	3	-24	1492	596	2067	-1.51	0.19	1.0000 
	-5	-3	24	915	393	1376	-1.51	-0.19	1.0000 
	3	-5	-24	1263	463	1620	-1.02	-0.52	1.0000 
	-3	-5	-24	1091	522	1582	-1.49	0.12	1.0000 
	-5	-3	-24	1192	498	1703	-1.49	0.26	1.0000 
	3	-5	-24	1421	526	1798	-1.02	-0.52	1.0000 
	-5	-3	-25	2572	814	2179	-0.89	-0.24	1.0000 
	-5	3	-25	1954	677	1642	0.83	0.59	1.0000 
	-3	-5	-25	2421	626	2039	-0.9	-0.3	1.0000 
	3	-5	-25	3027	720	2625	0.86	0.6	1.0000 
	5	3	-25	3296	812	2844	-0.91	-0.37	1.0000 
	5	-3	-25	3403	895	2993	0.82	0.56	1.0000 
	-5	-3	25	2138	531	1776	-0.91	0.37	1.0000 
	3	-5	-25	2309	590	1959	0.86	0.6	1.0000 
	-3	-5	-25	2283	524	1912	-0.9	-0.3	1.0000 
	-5	-3	-25	3062	779	2632	-0.89	-0.24	1.0000 
	3	-5	-25	2624	656	2250	0.86	0.6	1.0000 
	5	-3	-25	3323	806	2918	0.82	0.56	1.0000 
	5	3	-25	2842	658	2423	-0.91	-0.37	1.0000 
	-3	-5	-26	12272	2455	11265	1.04	0.5	1.0000 
	-5	-3	-26	10154	2633	9231	1.06	0.61	1.0000 
	-5	3	-26	5931	1620	5501	0.63	-0.05	1.0000 
	3	-5	-26	11480	1675	10865	0.64	-0.13	1.0000 
	5	3	-26	14178	1908	13114	1.03	0.68	1.0000 
	5	-3	-26	13359	2202	12671	0.67	-0.04	1.0000 
	-5	-3	26	7650	1019	6871	1.03	-0.68	1.0000 
	3	-5	-26	9204	1430	8654	0.64	-0.13	1.0000 
	-3	-5	-26	12173	1681	11170	1.04	0.5	1.0000 
	-5	-3	-26	13022	1900	11975	1.06	0.61	1.0000 
	3	-5	-26	11400	1271	10787	0.64	-0.13	1.0000 
	5	-3	-26	14139	1656	13431	0.67	-0.04	1.0000 
	5	3	-26	12438	1288	11442	1.03	0.68	1.0000 
	-3	-5	-27	26	206	-103	0.97	0.58	1.0000 
	-5	-3	-27	28	157	0	0.97	0.65	1.0000 
	-5	3	-27	3	163	-18	-0.3	0.2	1.0000 
	3	-5	-27	254	123	213	-0.3	0.22	1.0000 
	5	3	-27	390	156	244	0.97	0.65	1.0000 
	5	-3	-27	382	195	331	-0.31	0.22	1.0000 
	-5	-3	27	28	73	-10	0.97	-0.65	1.0000 
	3	-5	-27	202	101	166	-0.3	0.22	1.0000 
	5	-3	-27	361	160	311	-0.31	0.22	1.0000 
	3	-5	-27	262	162	221	-0.3	0.22	1.0000 
	5	3	-27	449	159	292	0.97	0.65	1.0000 
	-5	-3	-28	12332	3456	10926	-1.49	-0.97	1.0000 
	-5	3	-28	10875	3186	11183	0.33	1.4	1.0000 
	3	-5	-28	16272	2787	16653	0.33	1.35	1.0000 
	5	-3	-28	14591	5335	14935	0.32	1.4	1.0000 
	5	3	-28	16849	5438	15219	-1.47	-0.81	1.0000 
	-5	-3	28	6359	1621	5368	-1.47	0.81	1.0000 
	3	-5	-28	13629	3351	13975	0.33	1.35	1.0000 
	5	-3	-28	15768	2623	16127	0.32	1.4	1.0000 
	5	3	-28	14097	3067	12609	-1.47	-0.81	1.0000 
	-5	-3	-29	4	137	14	0.42	1.2	1.0000 
	-5	3	-29	62	152	-2	0.46	1.69	1.0000 
	3	-5	-29	4	115	100	0.43	1.75	1.0000 
	5	3	-29	31	136	132	0.42	1.24	1.0000 
	5	-3	-29	25	171	176	0.41	1.79	1.0000 
	-3	-5	29	8	97	80	0.39	-1.29	1.0000 
	-5	-3	29	0	39	38	0.42	-1.24	1.0000 
	3	-5	-29	368	300	745	0.43	1.75	1.0000 
	5	-3	-29	145	195	412	0.41	1.79	1.0000 
	5	3	-29	432	313	711	0.42	1.24	1.0000 
	-5	-3	-30	5988	2119	6349	-0.53	-1.27	1.0000 
	-5	3	-30	6700	1939	6269	0.67	1	1.0000 
	3	-5	-30	8999	2337	8498	0.67	1.01	1.0000 
	5	3	-30	8631	2537	9078	-0.54	-1.25	1.0000 
	5	-3	-30	9574	2493	9025	0.71	0.99	1.0000 
	-3	-5	30	6443	1863	6822	-0.53	1.3	1.0000 
	3	-5	-30	7918	2005	7447	0.67	1.01	1.0000 
	5	-3	-30	9307	2387	8766	0.71	0.99	1.0000 
	5	3	-30	7605	2161	8023	-0.54	-1.25	1.0000 
	-5	-3	-31	76	99	78	-0.02	0.06	1.0000 
	-5	3	-31	29	68	44	0.29	0.11	1.0000 
	5	-3	-31	239	191	279	0.27	0.18	1.0000 
	5	3	-31	213	151	216	-0.01	0.17	1.0000 
	3	-5	-31	137	151	169	0.28	0.15	1.0000 
	-3	-5	31	125	94	128	-0.02	-0.19	1.0000 
	3	-5	-31	103	131	130	0.28	0.15	1.0000 
	5	3	-31	400	270	404	-0.01	0.17	1.0000 
	5	-3	-31	488	314	545	0.27	0.18	1.0000 
	-5	3	-32	3075	1021	2995	-0.18	-0.25	1.0000 
	-5	-3	-32	3210	1255	3517	0.57	-0.35	1.0000 
	5	3	-32	5069	1668	5476	0.6	-0.4	1.0000 
	5	-3	-32	6121	1722	6046	-0.12	-0.21	1.0000 
	-3	-5	32	2927	970	3233	0.59	0.38	1.0000 
	5	-3	-32	4621	1338	4556	-0.12	-0.21	1.0000 
	5	3	-32	4361	1405	4739	0.6	-0.4	1.0000 
	-5	3	-33	9	116	-8	-0.26	-0.62	1.0000 
	-5	-3	-33	7	221	-59	0.34	-0.45	1.0000 
	3	-5	-33	128	104	105	-0.27	-0.62	1.0000 
	5	-3	-33	102	118	83	-0.25	-0.63	1.0000 
	5	3	-33	6	169	-47	0.35	-0.42	1.0000 
	5	3	-33	89	100	63	0.35	-0.42	1.0000 
	3	-5	-33	22	123	9	-0.27	-0.62	1.0000 
	5	-3	-33	171	122	148	-0.25	-0.63	1.0000 
	-5	3	-34	851	370	793	0.21	-0.23	1.0000 
	-5	-3	-34	1358	508	1302	0.16	-0.11	1.0000 
	5	-3	-34	2537	866	2429	0.23	-0.17	1.0000 
	5	3	-34	1502	511	1437	0.18	-0.06	1.0000 
	5	-3	-34	1783	608	1692	0.23	-0.17	1.0000 
	5	3	-34	1540	523	1474	0.18	-0.06	1.0000 
	-4	5	0	418275	19254	426187	1.35	-0.14	1.0000 
	-5	-4	0	405772	12762	412383	1.13	-0.57	1.0000 
	-4	-5	0	393337	12157	399803	1.13	-0.1	1.0000 
	-5	4	0	421220	19665	429245	1.36	0.22	1.0000 
	-5	4	0	416667	19434	424649	1.36	0.22	1.0000 
	-4	-5	0	397277	12257	403775	1.13	-0.1	1.0000 
	-5	-4	0	408077	18918	414706	1.13	-0.57	1.0000 
	-4	5	0	406184	12533	413982	1.35	-0.14	1.0000 
	-5	4	0	411447	19247	419379	1.36	0.22	1.0000 
	-5	-4	0	405777	12749	412388	1.13	-0.57	1.0000 
	-4	-5	0	392800	12133	399262	1.13	-0.1	1.0000 
	-4	-5	-1	19282	2548	31814	8.73	1.09	1.0000 
	-5	-4	1	19063	2535	31517	8.73	-0.81	1.0000 
	-4	-5	1	19176	2438	31698	8.75	-0.89	1.0000 
	-5	-4	-1	26785	2094	41229	8.7	1.16	1.0000 
	-4	-5	1	19605	1554	32249	8.75	-0.89	1.0000 
	-5	4	-1	21028	2275	33804	-8.29	-4.23	1.0000 
	-4	-5	-1	20832	1645	33798	8.73	1.09	1.0000 
	-5	-4	1	19515	2718	32097	8.73	-0.81	1.0000 
	-5	-4	-1	26105	2040	40383	8.7	1.16	1.0000 
	-4	-5	-1	20223	2561	33020	8.73	1.09	1.0000 
	-5	-4	1	19261	2462	31772	8.73	-0.81	1.0000 
	-4	-5	1	18992	2915	31461	8.75	-0.89	1.0000 
	-5	-4	-1	27392	2109	41981	8.7	1.16	1.0000 
	-4	5	2	295185	8603	274223	4.35	0.11	1.0000 
	-5	4	2	290710	9407	269846	4.36	0.16	1.0000 
	-4	5	-2	299196	8635	277262	4.54	0.35	1.0000 
	-5	-4	2	295111	8539	265115	6.33	-1.32	1.0000 
	-5	4	-2	303087	9057	281153	4.51	0.37	1.0000 
	-4	-5	2	299325	8510	268761	6.4	-1.19	1.0000 
	-5	-4	-2	296483	8626	265813	6.44	0.94	1.0000 
	-4	-5	-2	302044	8779	271415	6.38	1.07	1.0000 
	-5	-4	2	293654	8466	263734	6.33	-1.32	1.0000 
	-5	4	2	295923	9091	274869	4.36	0.16	1.0000 
	-5	4	-2	300121	8947	278296	4.51	0.37	1.0000 
	-4	-5	2	297036	8439	266592	6.4	-1.19	1.0000 
	-5	-4	-2	296307	8587	265646	6.44	0.94	1.0000 
	-4	-5	-2	300014	8480	269491	6.38	1.07	1.0000 
	-4	5	2	293998	8593	273079	4.35	0.11	1.0000 
	-4	-5	2	296145	8456	265748	6.4	-1.19	1.0000 
	-5	4	2	292138	9505	271222	4.36	0.16	1.0000 
	-4	5	-2	292510	8723	270827	4.54	0.35	1.0000 
	-5	4	-2	299298	8977	277504	4.51	0.37	1.0000 
	-4	-5	-2	302716	8567	272052	6.38	1.07	1.0000 
	-5	-4	-2	299256	8685	268439	6.44	0.94	1.0000 
	-5	-4	2	293905	8499	263972	6.33	-1.32	1.0000 
	-4	5	3	16875	1884	24810	6.1	0.54	1.0000 
	-4	-5	3	17191	2537	26007	-6.66	0.72	1.0000 
	-4	5	-3	17114	1683	25031	6.06	-0.15	1.0000 
	-5	-4	3	19538	1962	28866	-6.66	0.58	1.0000 
	-5	-4	-3	18992	3123	28139	-6.61	-0.73	1.0000 
	-4	-5	-3	16117	2379	24562	-6.58	-0.58	1.0000 
	-4	-5	3	17931	2446	26915	-6.66	0.72	1.0000 
	-4	5	-3	17080	2610	24990	6.06	-0.15	1.0000 
	-5	-4	3	20602	2334	30156	-6.66	0.58	1.0000 
	-5	-4	-3	19886	2402	29225	-6.61	-0.73	1.0000 
	-4	-5	-3	17896	1914	26747	-6.58	-0.58	1.0000 
	-4	5	3	18246	1928	26467	6.1	0.54	1.0000 
	-4	-5	3	18678	2012	27829	-6.66	0.72	1.0000 
	-5	-4	3	21020	1942	30662	-6.66	0.58	1.0000 
	-4	5	-3	19346	1735	27716	6.06	-0.15	1.0000 
	-4	5	4	149297	4969	134573	-4.41	1.8	1.0000 
	-4	-5	4	160519	4699	136995	-6.78	0.59	1.0000 
	-5	4	4	159309	5352	144353	-4.32	1.6	1.0000 
	-5	4	-4	156097	5470	141116	-4.37	-1.48	1.0000 
	-5	-4	4	166229	5737	142195	-6.81	0.6	1.0000 
	-4	5	-4	153143	4867	138689	-4.24	-1.27	1.0000 
	-4	-5	-4	154369	4594	131363	-6.78	-0.95	1.0000 
	-5	-4	4	169185	6948	144930	-6.81	0.6	1.0000 
	-4	5	-4	152206	4942	137797	-4.24	-1.27	1.0000 
	-4	-5	4	161305	4766	137721	-6.78	0.59	1.0000 
	-5	4	-4	156916	5447	141895	-4.37	-1.48	1.0000 
	-4	-5	-4	159253	4713	135871	-6.78	-0.95	1.0000 
	4	5	4	165668	4845	141802	-6.78	0.95	1.0000 
	-4	5	4	147526	5033	132891	-4.41	1.8	1.0000 
	-5	-4	4	160199	5899	136621	-6.81	0.6	1.0000 
	-4	5	-4	148853	4607	134607	-4.24	-1.27	1.0000 
	-4	-5	4	155845	4607	132679	-6.78	0.59	1.0000 
	-5	4	-4	151412	5400	136663	-4.37	-1.48	1.0000 
	-4	5	5	5785	1578	7674	-2.54	0.81	1.0000 
	-5	-4	5	7593	1253	9980	2.82	0.71	1.0000 
	-4	-5	5	7797	1537	10150	2.74	0.93	1.0000 
	-4	5	-5	5261	2085	7091	-2.58	-0.65	1.0000 
	-4	5	-5	4774	2072	6524	-2.58	-0.65	1.0000 
	-5	-4	5	8149	1311	10616	2.82	0.71	1.0000 
	-4	-5	-5	5962	1495	8107	2.83	-0.79	1.0000 
	-4	5	5	5981	1341	7900	-2.54	0.81	1.0000 
	-4	5	-5	6552	1525	8580	-2.58	-0.65	1.0000 
	-5	-4	5	8197	1408	10671	2.82	0.71	1.0000 
	-4	-5	5	8069	1137	10461	2.74	0.93	1.0000 
	-5	-4	6	56263	3748	57988	-0.8	0.12	1.0000 
	-4	-5	6	57687	2977	59366	-0.77	0.25	1.0000 
	-4	5	-6	54788	2424	55945	-0.55	-0.31	1.0000 
	-4	5	-6	51215	2694	52334	-0.55	-0.31	1.0000 
	-5	-4	6	56470	2684	58198	-0.8	0.12	1.0000 
	4	5	6	52961	2447	54603	-0.79	0.27	1.0000 
	-4	5	6	53857	2503	55303	-0.7	0.5	1.0000 
	-4	-5	6	54529	2517	56162	-0.77	0.25	1.0000 
	-5	4	6	53498	2623	54594	-0.53	0.26	1.0000 
	-5	-4	6	56915	3743	58650	-0.8	0.12	1.0000 
	-4	5	-6	51031	2794	52148	-0.55	-0.31	1.0000 
	-4	-5	7	1831	390	2277	3.92	-3.96	1.0000 
	-5	-4	7	1785	610	2342	4.07	-4.14	1.0000 
	-4	5	-7	1548	337	946	-1.99	0.62	1.0000 
	-4	5	-7	1499	374	908	-1.99	0.62	1.0000 
	4	5	7	559	945	402	4.29	-4.52	1.0000 
	5	4	7	620	804	572	4.15	-4.37	1.0000 
	-4	-5	7	1776	369	2204	3.92	-3.96	1.0000 
	-5	-4	7	1538	467	2001	4.07	-4.14	1.0000 
	-4	5	-7	1896	266	1224	-1.99	0.62	1.0000 
	-4	5	8	20516	3305	26141	4.08	-0.6	1.0000 
	-4	-5	8	23763	2869	27723	2.7	1.38	1.0000 
	-5	-4	8	24929	1932	28967	2.7	1.16	1.0000 
	-4	5	-8	19224	1802	24717	4.11	0.37	1.0000 
	-4	5	-8	19094	1966	24570	4.11	0.37	1.0000 
	-4	-5	-8	22647	1822	26527	2.73	-0.99	1.0000 
	4	5	8	21719	2787	25522	2.73	0.99	1.0000 
	-4	5	8	20700	1815	26349	4.08	-0.6	1.0000 
	-5	-4	8	22973	1810	26854	2.7	1.16	1.0000 
	-4	-5	8	22673	2271	26544	2.7	1.38	1.0000 
	-4	5	-8	20050	3210	25653	4.11	0.37	1.0000 
	-4	5	9	5930	1835	4499	-2.26	1.42	1.0000 
	-4	-5	9	4211	1185	4920	-1.15	-0.67	1.0000 
	-5	-4	9	5349	1683	6148	-1.15	-0.6	1.0000 
	-4	5	-9	3910	1144	2722	-2.31	-0.92	1.0000 
	-5	4	-9	5360	1585	3965	-2.31	-1.22	1.0000 
	-4	5	-9	3483	1223	2367	-2.31	-0.92	1.0000 
	-4	-5	-9	3579	1498	4230	-1.12	1.12	1.0000 
	5	-4	9	6419	873	4886	-2.31	1.22	1.0000 
	4	5	9	3285	1481	3908	-1.12	-1.12	1.0000 
	-4	5	9	6318	1404	4839	-2.26	1.42	1.0000 
	-4	-5	9	4768	1243	5521	-1.15	-0.67	1.0000 
	-5	-4	9	5138	1507	5921	-1.15	-0.6	1.0000 
	-4	5	-9	5087	884	3720	-2.31	-0.92	1.0000 
	-4	5	10	9346	2724	9019	-0.36	-0.26	1.0000 
	-5	-4	10	11173	2322	10150	-1.11	0.14	1.0000 
	-4	-5	10	10003	1790	8961	-1.19	-0.02	1.0000 
	-5	4	10	8237	2646	7958	-0.33	-0.19	1.0000 
	-4	5	-10	5558	1872	5317	-0.36	0.02	1.0000 
	-4	5	-10	4382	2244	4169	-0.36	0.02	1.0000 
	-4	-5	-10	9729	2188	8723	-1.17	-0.12	1.0000 
	-5	4	-10	8916	1245	8593	-0.38	0.1	1.0000 
	5	-4	10	6174	2197	5906	-0.38	-0.1	1.0000 
	4	5	10	9784	1729	8775	-1.17	0.12	1.0000 
	-4	5	10	10239	2247	9897	-0.36	-0.26	1.0000 
	-5	-4	10	10697	2341	9696	-1.11	0.14	1.0000 
	-4	-5	10	10848	1867	9762	-1.19	-0.02	1.0000 
	-5	4	10	8998	2977	8707	-0.33	-0.19	1.0000 
	-4	5	-10	7333	990	7056	-0.36	0.02	1.0000 
	-4	5	11	99	234	351	1.86	1.05	1.0000 
	-5	-4	11	365	167	360	0.04	-0.47	1.0000 
	-5	4	11	239	251	603	1.88	1.14	1.0000 
	-4	-5	11	350	195	339	0.09	-0.58	1.0000 
	-4	5	-11	23	154	171	1.88	-1.06	1.0000 
	-4	5	-11	20	175	161	1.88	-1.06	1.0000 
	-5	4	-11	89	276	328	1.85	-0.99	1.0000 
	-4	-5	-11	366	251	374	-0.04	0.44	1.0000 
	4	-5	11	20	139	161	1.88	1.06	1.0000 
	4	5	11	491	252	501	-0.04	-0.44	1.0000 
	-5	4	11	118	149	393	1.88	1.14	1.0000 
	-4	-5	11	482	164	470	0.09	-0.58	1.0000 
	-4	5	11	108	137	368	1.86	1.05	1.0000 
	-5	-4	11	466	115	461	0.04	-0.47	1.0000 
	-4	5	12	60869	3544	60555	0.12	0.39	1.0000 
	-5	-4	12	67125	5897	64642	1.22	-2.23	1.0000 
	-4	-5	12	59104	3196	56847	1.19	-2.25	1.0000 
	-4	5	-12	47339	3017	47029	0.15	-0.25	1.0000 
	-5	4	-12	58323	3643	58009	0.13	-0.28	1.0000 
	-4	5	-12	47507	3604	47197	0.15	-0.25	1.0000 
	4	-5	12	55433	2912	55098	0.15	0.25	1.0000 
	4	5	12	63276	3491	60868	1.22	-2.17	1.0000 
	-4	-5	12	59154	3221	56896	1.19	-2.25	1.0000 
	-5	4	12	57258	3668	56951	0.13	0.36	1.0000 
	-4	5	12	60018	5730	59706	0.12	0.39	1.0000 
	-5	-4	12	63444	4556	61028	1.22	-2.23	1.0000 
	-4	-5	13	3083	1857	2638	-0.92	0	1.0000 
	-4	5	13	6622	1025	6034	0.82	-0.49	1.0000 
	-5	4	-13	3534	1619	3093	0.85	0.51	1.0000 
	-4	5	-13	2135	1062	1778	0.89	0.51	1.0000 
	-4	-5	-13	5541	1391	4894	-0.99	-0.12	1.0000 
	4	-5	13	907	1723	678	0.89	-0.51	1.0000 
	5	-4	13	3452	1434	3016	0.85	-0.51	1.0000 
	-5	4	13	6819	1375	6192	0.86	-0.46	1.0000 
	-4	-5	13	3646	2138	3161	-0.92	0	1.0000 
	-4	5	13	7623	1191	6992	0.82	-0.49	1.0000 
	-4	-5	14	115661	5712	115276	-0.07	-1.75	1.0000 
	-4	5	14	118165	6160	117828	-0.09	-0.62	1.0000 
	-5	-4	14	113574	6460	113340	-0.02	-1.8	1.0000 
	-5	4	-14	116066	6231	115704	-0.09	0.81	1.0000 
	-4	-5	-14	108579	7474	108314	-0.04	1.68	1.0000 
	4	-5	-14	123926	6257	123581	-0.09	0.62	1.0000 
	5	-4	14	109044	5763	108693	-0.09	-0.81	1.0000 
	-4	5	14	116616	6121	116281	-0.09	-0.62	1.0000 
	-5	-4	14	112592	6560	112359	-0.02	-1.8	1.0000 
	-4	-5	14	113204	5975	112822	-0.07	-1.75	1.0000 
	-4	5	15	6086	2157	6385	0.4	0.73	1.0000 
	-5	-4	15	10781	1759	11049	-0.28	0.26	1.0000 
	-5	4	-15	6382	1685	6686	0.4	-0.73	1.0000 
	-4	-5	-15	7229	1836	7453	-0.29	-0.16	1.0000 
	4	-5	-15	7100	1850	7424	0.4	-0.73	1.0000 
	5	-4	15	3330	2145	3548	0.4	0.73	1.0000 
	4	5	15	8887	1934	9136	-0.29	0.16	1.0000 
	-4	5	15	8394	1924	8747	0.4	0.73	1.0000 
	-5	-4	15	10762	1851	11029	-0.28	0.26	1.0000 
	-4	-5	15	8033	826	8270	-0.29	0.25	1.0000 
	-4	5	16	170940	17403	162821	2.35	-2.8	1.0000 
	-4	-5	16	155545	16471	149535	1.7	0.17	1.0000 
	-5	-4	16	159116	16674	152944	1.72	0.21	1.0000 
	-5	4	-16	160977	16528	153243	2.32	2.85	1.0000 
	-4	-5	-16	154907	16925	148745	1.74	-0.26	1.0000 
	4	-5	-16	166156	19625	158151	2.35	2.8	1.0000 
	5	-4	16	154388	15596	146812	2.32	-2.85	1.0000 
	4	5	16	160380	16774	154109	1.74	0.26	1.0000 
	-4	5	16	161683	18462	153785	2.35	-2.8	1.0000 
	-5	-4	16	157244	16811	151109	1.72	0.21	1.0000 
	-5	4	16	163302	16629	155202	2.41	-2.93	1.0000 
	-4	-5	16	155855	16112	149839	1.7	0.17	1.0000 
	-5	-4	-16	150514	15185	144487	1.73	-0.24	1.0000 
	-5	-4	16	122231	12341	116829	1.72	0.21	1.0000 
	-4	-5	16	135273	13658	129672	1.7	0.17	1.0000 
	5	-4	-16	151945	16015	144129	2.41	2.93	1.0000 
	-4	5	17	649	832	1314	-2.36	0.59	1.0000 
	-5	-4	17	1972	687	3322	2.77	1.27	1.0000 
	-4	-5	17	907	526	1867	2.8	1.08	1.0000 
	-5	4	-17	451	440	1038	-2.4	-0.62	1.0000 
	-4	-5	-17	977	546	1967	2.73	-1.35	1.0000 
	4	5	-17	659	753	1501	2.8	-1.08	1.0000 
	4	-5	-17	1655	661	2649	-2.36	-0.59	1.0000 
	5	-4	17	191	494	614	-2.4	0.62	1.0000 
	4	5	17	1016	627	2022	2.73	1.35	1.0000 
	-4	-5	17	763	610	1657	2.8	1.08	1.0000 
	-4	5	17	1784	543	2812	-2.36	0.59	1.0000 
	-5	-4	17	2037	845	3406	2.77	1.27	1.0000 
	-4	-5	-17	643	279	1474	2.73	-1.35	1.0000 
	-5	-4	-17	858	491	1781	2.76	-1.07	1.0000 
	5	-4	-17	862	576	1607	-2.34	-0.65	1.0000 
	-5	-4	17	1426	461	2598	2.77	1.27	1.0000 
	-4	-5	17	1702	725	2958	2.8	1.08	1.0000 
	4	-5	-17	1498	366	2449	-2.36	-0.59	1.0000 
	5	-4	-17	984	577	1773	-2.34	-0.65	1.0000 
	-4	-5	-17	1076	333	2107	2.73	-1.35	1.0000 
	-4	5	18	84652	9485	83252	-0.52	-0.37	1.0000 
	-5	-4	18	93013	11810	91382	-0.57	-0.71	1.0000 
	-5	4	18	91117	9427	89567	-0.55	-0.54	1.0000 
	-5	4	-18	88166	8483	86815	-0.49	0.32	1.0000 
	-4	-5	-18	89568	9931	88055	-0.54	0.69	1.0000 
	4	-5	-18	94227	11131	92749	-0.52	0.37	1.0000 
	5	-4	18	85749	7943	84416	-0.49	-0.32	1.0000 
	4	5	18	93622	8831	92075	-0.54	-0.69	1.0000 
	-4	5	18	90495	14388	89047	-0.52	-0.37	1.0000 
	-5	-4	18	100459	11357	98764	-0.57	-0.71	1.0000 
	-5	4	18	87086	8844	85570	-0.55	-0.54	1.0000 
	4	-5	-18	83798	7501	82405	-0.52	0.37	1.0000 
	5	4	-18	79821	7397	78310	-0.57	0.71	1.0000 
	5	-4	-18	85592	7632	84089	-0.55	0.54	1.0000 
	-5	-4	18	78626	7035	77126	-0.57	-0.71	1.0000 
	-4	-5	18	82352	7376	80767	-0.59	-0.8	1.0000 
	4	-5	-18	88126	7868	86697	-0.52	0.37	1.0000 
	5	-4	-18	93714	10466	92142	-0.55	0.54	1.0000 
	-4	-5	-18	82887	7555	81431	-0.54	0.69	1.0000 
	4	-5	-18	76142	7472	74814	-0.52	0.37	1.0000 
	-4	5	19	1	328	413	0.89	-4.2	1.0000 
	-5	4	19	9	454	523	0.97	-4.3	1.0000 
	-5	-4	19	156	262	892	3.84	0.27	1.0000 
	-5	4	-19	1	301	360	0.86	4.09	1.0000 
	-4	-5	-19	91	295	728	3.83	-0.6	1.0000 
	4	-5	-19	38	228	649	0.89	4.2	1.0000 
	5	-4	-19	92	346	867	0.97	4.3	1.0000 
	5	-4	19	8	230	262	0.86	-4.09	1.0000 
	4	5	19	21	298	483	3.83	0.6	1.0000 
	-4	5	19	59	279	731	0.89	-4.2	1.0000 
	-5	-4	19	188	252	965	3.84	0.27	1.0000 
	-4	-5	-19	88	209	719	3.83	-0.6	1.0000 
	4	-5	-19	47	282	685	0.89	4.2	1.0000 
	5	4	-19	105	340	761	3.84	-0.27	1.0000 
	-4	-5	19	571	494	1705	3.85	0.13	1.0000 
	-5	-4	19	117	286	793	3.84	0.27	1.0000 
	5	-4	-19	136	226	993	0.97	4.3	1.0000 
	-4	-5	-19	295	306	1198	3.83	-0.6	1.0000 
	4	-5	-19	117	210	909	0.89	4.2	1.0000 
	-4	5	20	31875	5482	34579	-1.67	0.94	1.0000 
	-5	4	20	17985	8090	19978	-1.63	0.81	1.0000 
	-5	-4	20	28646	6477	31442	-1.75	-0.73	1.0000 
	-4	-5	-20	26599	5805	29308	-1.76	0.68	1.0000 
	4	-5	-20	30013	6049	32637	-1.67	-0.94	1.0000 
	5	-4	-20	33962	7357	36687	-1.63	-0.81	1.0000 
	4	5	20	26108	6377	28793	-1.76	-0.68	1.0000 
	-5	4	20	27543	6599	30001	-1.63	0.81	1.0000 
	-4	5	20	27579	6329	30096	-1.67	0.94	1.0000 
	-5	-4	20	30062	6153	32925	-1.75	-0.73	1.0000 
	-4	-5	-20	27884	6527	30657	-1.76	0.68	1.0000 
	5	-4	-20	32846	5253	35527	-1.63	-0.81	1.0000 
	4	-5	-20	27673	5887	30194	-1.67	-0.94	1.0000 
	5	4	-20	29275	5590	32101	-1.75	0.73	1.0000 
	-5	-4	20	29695	5732	32541	-1.75	-0.73	1.0000 
	4	-5	-20	35425	6122	38273	-1.67	-0.94	1.0000 
	5	-4	-20	32077	5362	34727	-1.63	-0.81	1.0000 
	4	-5	-20	29535	5037	32139	-1.67	-0.94	1.0000 
	-4	5	21	91	280	264	-1.49	-0.07	1.0000 
	-5	-4	21	281	167	282	-0.08	0.33	1.0000 
	-5	4	21	107	230	290	-1.49	-0.12	1.0000 
	-4	-5	-21	189	248	199	-0.14	-0.6	1.0000 
	5	-4	-21	269	392	534	-1.49	0.12	1.0000 
	4	-5	-21	26	183	140	-1.49	0.07	1.0000 
	5	4	-21	245	160	245	-0.08	-0.33	1.0000 
	4	5	21	162	180	171	-0.14	0.6	1.0000 
	5	4	21	140	152	153	-0.19	0.74	1.0000 
	-5	-4	21	283	227	284	-0.08	0.33	1.0000 
	-5	4	21	115	228	304	-1.49	-0.12	1.0000 
	-4	5	21	125	283	320	-1.49	-0.07	1.0000 
	-4	-5	-21	183	140	193	-0.14	-0.6	1.0000 
	-5	4	-21	15	105	109	-1.46	-0.03	1.0000 
	5	-4	-21	205	195	441	-1.49	0.12	1.0000 
	4	-5	-21	158	145	373	-1.49	0.07	1.0000 
	5	4	-21	262	109	262	-0.08	-0.33	1.0000 
	-5	-4	21	323	158	324	-0.08	0.33	1.0000 
	5	-4	-21	180	293	404	-1.49	0.12	1.0000 
	4	-5	-21	477	367	816	-1.49	0.07	1.0000 
	-4	-5	-22	2966	976	2992	0.07	0.43	1.0000 
	-5	-4	-22	2691	1043	2730	0.1	0.35	1.0000 
	-5	4	-22	1377	707	1582	0.63	0.97	1.0000 
	5	4	-22	3525	1011	3577	0.11	0.44	1.0000 
	5	-4	-22	2769	946	3050	0.6	0.82	1.0000 
	4	-5	-22	3036	1077	3330	0.6	0.89	1.0000 
	-5	-4	22	3340	928	3390	0.11	-0.44	1.0000 
	4	-5	-22	3186	974	3487	0.6	0.89	1.0000 
	5	-4	-22	2849	857	3134	0.6	0.82	1.0000 
	-4	-5	-22	3611	989	3640	0.07	0.43	1.0000 
	4	-5	-22	2883	891	3169	0.6	0.89	1.0000 
	-4	-5	-23	148	206	61	1.77	1.09	1.0000 
	-5	-4	-23	81	102	-29	1.72	1.01	1.0000 
	-5	4	-23	5	76	8	1.07	-0.36	1.0000 
	5	4	-23	127	84	38	1.74	1.05	1.0000 
	4	-5	-23	23	113	94	1.07	-0.29	1.0000 
	-5	-4	23	100	76	13	1.74	-1.05	1.0000 
	5	-4	-23	131	188	266	1.05	-0.31	1.0000 
	4	-5	-23	4	82	47	1.07	-0.29	1.0000 
	-4	-5	-23	383	132	297	1.77	1.09	1.0000 
	4	-5	-23	70	162	177	1.07	-0.29	1.0000 
	5	-4	-23	118	124	247	1.05	-0.31	1.0000 
	-4	-5	-24	560	240	790	-0.98	0.52	1.0000 
	-5	-4	-24	101	220	205	-0.97	0.42	1.0000 
	-5	4	-24	299	116	313	-0.05	1.22	1.0000 
	5	4	-24	429	211	640	-1.02	0.55	1.0000 
	4	-5	-24	543	210	561	0	1.18	1.0000 
	-5	-4	24	515	220	745	-1.02	-0.55	1.0000 
	-4	-5	24	315	148	493	-0.99	-0.43	1.0000 
	5	-4	-24	257	149	258	0.01	1.16	1.0000 
	4	-5	-24	503	164	519	0	1.18	1.0000 
	-4	-5	-24	84	147	180	-0.98	0.52	1.0000 
	4	-5	-24	444	198	457	0	1.18	1.0000 
	5	4	-24	442	208	656	-1.02	0.55	1.0000 
	-4	-5	-25	9875	1328	7554	-2.79	-0.96	1.0000 
	-5	-4	-25	8233	1523	6115	-2.8	-0.98	1.0000 
	4	-5	-25	6673	1555	7369	-0.92	0.01	1.0000 
	5	4	-25	11254	1425	8739	-2.82	-0.95	1.0000 
	-4	-5	25	11751	1264	9172	-2.83	0.95	1.0000 
	-5	-4	25	9147	947	6893	-2.82	0.95	1.0000 
	4	-5	-25	6062	1089	6726	-0.92	0.01	1.0000 
	5	-4	-25	3541	1262	4036	-0.89	-0.05	1.0000 
	-4	-5	-25	10460	1043	8067	-2.79	-0.96	1.0000 
	5	4	-25	10801	979	8340	-2.82	-0.95	1.0000 
	4	-5	-25	7358	1113	8088	-0.92	0.01	1.0000 
	-5	-4	-26	22111	3394	25253	-2.29	-0.89	1.0000 
	4	-5	-26	24373	4596	25828	-1.03	-0.41	1.0000 
	5	4	-26	24002	3754	27323	-2.32	-0.88	1.0000 
	-5	-4	26	18009	2751	20897	-2.32	0.88	1.0000 
	-4	-5	26	21724	3183	24893	-2.32	0.89	1.0000 
	4	-5	-26	22599	3037	24001	-1.03	-0.41	1.0000 
	5	4	-26	22510	2619	25729	-2.32	-0.88	1.0000 
	4	-5	-26	24287	3345	25740	-1.03	-0.41	1.0000 
	-5	4	-27	433	224	488	0.28	-0.42	1.0000 
	-5	-4	-27	635	218	522	0.53	0.54	1.0000 
	4	-5	-27	1216	455	1299	0.25	-0.41	1.0000 
	5	4	-27	1480	434	1317	0.51	0.67	1.0000 
	-4	-5	27	1638	482	1458	0.53	-0.67	1.0000 
	-5	-4	27	1394	410	1235	0.51	-0.67	1.0000 
	4	-5	-27	428	229	477	0.25	-0.41	1.0000 
	4	-5	-27	1642	593	1739	0.25	-0.41	1.0000 
	5	4	-27	1404	393	1245	0.51	0.67	1.0000 
	-5	-4	-28	39666	7797	41577	1.09	1.39	1.0000 
	4	-5	-28	47661	9669	47994	0.14	-0.58	1.0000 
	5	4	-28	40315	8202	42263	1.1	1.39	1.0000 
	-4	-5	28	36850	7509	38730	1.11	-1.42	1.0000 
	-5	-4	28	29358	6116	31018	1.1	-1.39	1.0000 
	4	-5	-28	49873	9023	50214	0.14	-0.58	1.0000 
	5	4	-28	41021	7873	42986	1.1	1.39	1.0000 
	-5	4	-29	57	150	-52	-0.61	-1.55	1.0000 
	-5	-4	-29	3	150	128	-2.13	-0.1	1.0000 
	5	-4	-29	167	212	404	-0.6	-1.58	1.0000 
	5	4	-29	1	99	77	-2.11	-0.12	1.0000 
	4	-5	-29	167	223	400	-0.63	-1.54	1.0000 
	-4	-5	29	116	216	404	-2.06	0.16	1.0000 
	-5	-4	29	1	72	115	-2.11	0.12	1.0000 
	4	-5	-29	187	252	430	-0.63	-1.54	1.0000 
	5	4	-29	79	168	339	-2.11	-0.12	1.0000 
	-5	4	-30	15271	4459	14124	1.05	0.04	1.0000 
	-5	-4	-30	40990	10398	40692	0.18	0.24	1.0000 
	5	4	-30	44098	10906	43804	0.17	0.24	1.0000 
	4	-5	-30	47985	11688	45989	1.02	0.04	1.0000 
	-4	-5	30	34961	8321	34656	0.2	-0.28	1.0000 
	4	-5	-30	51292	12230	49228	1.02	0.04	1.0000 
	5	4	-30	37887	9511	37614	0.17	0.24	1.0000 
	-5	-4	-31	1	110	114	-2.3	-1.1	1.0000 
	5	-4	-31	81	230	364	1.01	-1.99	1.0000 
	5	4	-31	116	255	507	-2.27	-1.29	1.0000 
	4	-5	-31	284	376	727	0.98	-2.01	1.0000 
	-4	-5	31	8	137	205	-2.24	1.25	1.0000 
	-5	-4	31	2	81	113	-2.27	1.29	1.0000 
	5	4	-31	72	213	409	-2.27	-1.29	1.0000 
	4	-5	-31	206	327	599	0.98	-2.01	1.0000 
	5	-4	-31	547	500	1119	1.01	-1.99	1.0000 
	-5	-4	-32	32046	8876	31548	-0.27	0.91	1.0000 
	5	-4	-32	47199	12270	44576	-1.34	0.41	1.0000 
	5	4	-32	34089	9271	33557	-0.28	0.93	1.0000 
	-4	-5	32	18334	5710	17958	-0.27	-0.92	1.0000 
	5	4	-32	17931	4864	17541	-0.28	0.93	1.0000 
	-5	-4	-33	228	132	275	-0.32	-0.44	1.0000 
	5	-4	-33	461	289	615	0.72	-0.42	1.0000 
	5	4	-33	169	115	216	-0.37	-0.5	1.0000 
	4	-5	-33	371	236	506	0.69	-0.53	1.0000 
	4	-5	-33	1063	470	1288	0.69	-0.53	1.0000 
	5	4	-33	384	203	456	-0.37	-0.5	1.0000 
	5	-4	-33	1240	598	1487	0.72	-0.42	1.0000 
	-5	5	0	440636	23686	525418	13.52	0.04	1.0000 
	-5	-5	0	412068	22544	492233	13.21	-0.16	1.0000 
	-5	-5	0	418772	22414	499558	13.21	-0.16	1.0000 
	-5	5	0	409948	22333	491857	13.52	0.04	1.0000 
	-5	-5	0	402585	21867	481863	13.21	-0.16	1.0000 
	-5	-5	1	20103	3209	22357	1.61	1.56	1.0000 
	-5	-5	1	16404	3264	18442	1.61	1.56	1.0000 
	-5	5	-1	14351	1615	14771	1.72	6.95	1.0000 
	-5	-5	1	20743	4404	23032	1.61	1.56	1.0000 
	-5	-5	2	277321	14615	311496	-6.89	-2.02	1.0000 
	-5	-5	-2	288765	14933	323020	-6.77	2.09	1.0000 
	-5	-5	2	277731	14357	311931	-6.89	-2.02	1.0000 
	-5	-5	-2	281962	14588	315822	-6.77	2.09	1.0000 
	-5	-5	2	270088	14303	303827	-6.89	-2.02	1.0000 
	-5	-5	-2	278157	14420	311794	-6.77	2.09	1.0000 
	-5	-5	3	16777	2091	14786	1.89	-1.79	1.0000 
	-5	-5	3	15591	2249	13671	1.89	-1.79	1.0000 
	-5	-5	3	18575	2062	16480	1.89	-1.79	1.0000 
	-5	-5	4	146871	7470	153156	1.84	-1.4	1.0000 
	-5	-5	4	146078	7807	152346	1.84	-1.4	1.0000 
	-5	5	4	153660	7992	157640	1.13	-0.29	1.0000 
	-5	-5	4	147425	7480	153722	1.84	-1.4	1.0000 
	-5	-5	5	4337	778	3780	-2.43	-3.82	1.0000 
	-5	-5	5	3664	885	3120	-2.43	-3.82	1.0000 
	-5	-5	5	5390	807	4815	-2.43	-3.82	1.0000 
	-5	5	6	42718	3905	43925	-0.49	-2.91	1.0000 
	-5	-5	6	45916	3927	48815	-1.36	-2.42	1.0000 
	-5	5	-6	39819	3798	40851	-0.45	2.5	1.0000 
	-5	5	-6	42267	2689	43334	-0.45	2.5	1.0000 
	-5	-5	-6	43090	2769	45858	-1.29	3.08	1.0000 
	-5	5	6	48029	3673	49318	-0.49	-2.91	1.0000 
	-5	-5	6	47200	4031	50140	-1.36	-2.42	1.0000 
	-5	5	7	4	493	1255	-7.39	0.29	1.0000 
	-5	-5	7	168	305	1573	5.9	-0.42	1.0000 
	-5	5	-7	6	298	955	-7.35	-0.6	1.0000 
	-5	5	-7	10	395	918	-7.35	-0.6	1.0000 
	5	5	7	9	735	557	5.89	0.12	1.0000 
	-5	5	7	99	518	1879	-7.39	0.29	1.0000 
	-5	-5	7	324	414	1997	5.9	-0.42	1.0000 
	-5	5	-7	27	328	1475	-7.35	-0.6	1.0000 
	-5	5	8	8512	1436	5206	-4.6	-2.48	1.0000 
	-5	-5	8	7608	1338	6454	-1.53	-0.22	1.0000 
	-5	5	-8	6842	1254	3920	-4.56	2.36	1.0000 
	-5	5	-8	6169	1638	3408	-4.56	2.36	1.0000 
	-5	-5	-8	6942	1518	5858	-1.51	0.46	1.0000 
	5	5	8	5956	2093	4955	-1.51	-0.46	1.0000 
	-5	5	8	10739	1732	6996	-4.6	-2.48	1.0000 
	-5	-5	8	9083	1569	7818	-1.53	-0.22	1.0000 
	-5	5	-8	9041	1181	5643	-4.56	2.36	1.0000 
	-5	-5	9	7477	1108	6071	1.91	0.73	1.0000 
	-5	5	9	4874	1373	4200	-1.14	1.09	1.0000 
	-5	5	-9	3799	1165	3193	-1.19	-1.56	1.0000 
	-5	5	-9	3376	1371	2803	-1.19	-1.56	1.0000 
	-5	5	9	5933	1402	5190	-1.14	1.09	1.0000 
	-5	-5	9	7673	1068	6248	1.91	0.73	1.0000 
	-5	5	-9	4693	888	4022	-1.19	-1.56	1.0000 
	-5	5	10	19007	1769	20286	0.81	2.17	1.0000 
	-5	-5	10	17090	2031	20962	3.14	-2.83	1.0000 
	-5	5	-10	13849	1808	14903	0.81	-1.93	1.0000 
	-5	5	-10	13271	2024	14301	0.81	-1.93	1.0000 
	-5	5	10	18687	4204	19955	0.81	2.17	1.0000 
	-5	5	-10	11924	3351	12898	0.81	-1.93	1.0000 
	-5	5	11	148	226	570	-1.57	-2.57	1.0000 
	-5	5	11	138	198	549	-1.57	-2.57	1.0000 
	-5	5	12	85723	4897	89723	-1.42	-1.34	1.0000 
	-5	-5	-12	88594	7373	89015	0.06	3.11	1.0000 
	5	5	12	88846	4805	89268	0.06	-3.11	1.0000 
	-5	5	12	85453	4919	89447	-1.42	-1.34	1.0000 
	5	-5	-12	78805	4217	82641	-1.42	1.34	1.0000 
	-5	5	13	2798	2815	5194	-4.24	0.43	1.0000 
	-5	-5	-13	3909	1474	7397	5.13	1.54	1.0000 
	5	5	13	1849	2169	4408	5.13	-1.54	1.0000 
	-5	5	13	4703	2377	7701	-4.24	0.43	1.0000 
	5	-5	-13	5436	2542	8632	-4.24	-0.43	1.0000 
	-5	5	14	164973	17902	161369	-0.94	-1.43	1.0000 
	-5	-5	14	169571	17118	159841	-2.69	0.68	1.0000 
	-5	-5	14	163015	20597	153477	-2.69	0.68	1.0000 
	-5	5	14	170410	18294	166748	-0.94	-1.43	1.0000 
	-5	-5	-14	164899	16340	155315	-2.69	-0.74	1.0000 
	-5	-5	14	152064	14996	142857	-2.69	0.68	1.0000 
	5	-5	-14	161254	16520	157691	-0.94	1.43	1.0000 
	-5	-5	15	7032	3850	7670	-0.79	-1.12	1.0000 
	-5	5	15	6602	4363	6657	0.07	0.98	1.0000 
	-5	-5	-15	9724	2150	10450	-0.75	1.33	1.0000 
	5	5	15	12209	2692	13026	-0.75	-1.33	1.0000 
	-5	5	15	7239	4225	7297	0.07	0.98	1.0000 
	-5	-5	-15	8075	1476	8735	-0.75	1.33	1.0000 
	5	-5	-15	6869	2145	6925	0.07	-0.98	1.0000 
	-5	5	16	221223	32933	226755	-1.3	0.07	1.0000 
	-5	-5	16	190331	28239	197488	-1.75	-1.16	1.0000 
	-5	-5	-16	199210	30125	206679	-1.78	1.26	1.0000 
	5	-5	-16	234854	34885	240553	-1.3	-0.07	1.0000 
	5	5	16	210726	31780	218407	-1.78	-1.26	1.0000 
	-5	5	16	216306	32271	221776	-1.3	0.07	1.0000 
	-5	-5	16	168185	27330	174915	-1.75	-1.16	1.0000 
	-5	-5	-16	190164	27847	197463	-1.78	1.26	1.0000 
	5	-5	-16	188409	27210	193517	-1.3	-0.07	1.0000 
	-5	5	17	5375	2278	3463	3.2	0.39	1.0000 
	-5	-5	-17	6776	1370	5523	-1.93	2	1.0000 
	5	-5	-17	10268	1978	7547	3.2	-0.39	1.0000 
	5	5	17	6724	1664	5476	-1.93	-2	1.0000 
	-5	5	17	9249	1722	6677	3.2	0.39	1.0000 
	-5	-5	-17	6628	1247	5389	-1.93	2	1.0000 
	5	-5	-17	7684	1228	5358	3.2	-0.39	1.0000 
	-5	5	18	111665	17794	121123	3.03	0.89	1.0000 
	-5	-5	-18	97569	16762	107883	3.57	0	1.0000 
	5	-5	-18	111730	18971	121191	3.03	-0.89	1.0000 
	5	5	18	105820	17171	116550	3.57	0	1.0000 
	-5	5	18	98284	17698	107169	3.03	0.89	1.0000 
	-5	-5	-18	102800	17355	113380	3.57	0	1.0000 
	5	-5	-18	101408	16113	110430	3.03	-0.89	1.0000 
	5	-5	-18	95833	15441	104609	3.03	-0.89	1.0000 
	-5	5	19	3244	1032	1571	-4.04	2.71	1.0000 
	-5	-5	-19	3277	1013	2533	1.54	-0.37	1.0000 
	5	-5	-19	5415	1168	3226	-4.04	-2.71	1.0000 
	5	5	19	4094	1017	3257	1.54	0.37	1.0000 
	-5	5	19	5548	1048	3332	-4.04	2.71	1.0000 
	-5	-5	-19	3498	1063	2728	1.54	-0.37	1.0000 
	5	-5	-19	6544	1309	4131	-4.04	-2.71	1.0000 
	5	-5	-19	10236	1197	7204	-4.04	-2.71	1.0000 
	-5	-5	-20	25289	2218	29354	-2.79	-1.84	1.0000 
	5	-5	-20	27455	1312	31166	-2.46	-1.43	1.0000 
	-5	-5	20	24140	3641	28162	-2.82	1.82	1.0000 
	5	-5	-20	30173	3379	34059	-2.46	-1.43	1.0000 
	5	-5	-20	23656	3029	27105	-2.46	-1.43	1.0000 
	-5	-5	-21	4304	1231	3934	-0.65	0.82	1.0000 
	5	-5	-21	5223	1337	4388	1.37	-1.09	1.0000 
	-5	-5	21	4689	1208	4312	-0.63	-0.52	1.0000 
	5	-5	-21	6320	1468	5401	1.37	-1.09	1.0000 
	5	-5	-21	5376	1250	4529	1.37	-1.09	1.0000 
	-5	-5	-22	131	100	74	-0.93	-0.45	1.0000 
	5	-5	-22	286	152	209	-1.54	-0.81	1.0000 
	5	5	-22	138	44	74	-0.91	-0.3	1.0000 
	-5	-5	22	454	145	339	-0.91	0.3	1.0000 
	5	-5	-22	420	162	339	-1.54	-0.81	1.0000 
	5	-5	-22	332	114	253	-1.54	-0.81	1.0000 
	-5	-5	-23	4931	1322	5644	-1.08	-0.49	1.0000 
	5	-5	-23	7577	1149	6438	-1.51	-0.52	1.0000 
	-5	-5	23	5568	789	6309	-1.06	0.66	1.0000 
	5	-5	-23	7972	820	6803	-1.51	-0.52	1.0000 
	5	-5	-23	7143	846	6038	-1.51	-0.52	1.0000 
	-5	-5	-24	2874	1102	3188	0.58	-0.86	1.0000 
	5	-5	-24	2970	1285	4162	2.23	0.42	1.0000 
	-5	-5	24	3714	1209	4092	0.62	0.83	1.0000 
	5	-5	-24	2557	1045	3671	2.23	0.42	1.0000 
	5	-5	-24	2667	1105	3802	2.23	0.42	1.0000 
	-5	-5	25	13628	2733	17528	3.46	0.28	1.0000 
	5	-5	-25	15276	2979	17822	-2.16	1.62	1.0000 
	5	-5	-25	15382	2727	17937	-2.16	1.62	1.0000 
	-5	-5	26	34568	6380	39160	-2.64	-0.23	1.0000 
	5	-5	-26	34370	5878	37625	-1.92	-0.68	1.0000 
	5	-5	-26	43323	6842	46970	-1.92	-0.68	1.0000 
	5	-5	-27	9013	2509	8569	-0.53	0.39	1.0000 
	-5	-5	27	6050	2151	6657	-0.83	0.53	1.0000 
	5	-5	-27	4331	1280	4024	-0.53	0.39	1.0000 
	5	-5	-27	9702	2533	9241	-0.53	0.39	1.0000 
	5	-5	-28	76960	13408	75264	-0.69	-0.25	1.0000 
	-5	-5	28	50992	8348	49249	-0.92	1.08	1.0000 
	5	-5	-28	65444	12154	63880	-0.69	-0.25	1.0000 
	5	-5	-29	2834	901	2948	-0.13	-1.38	1.0000 
	-5	-5	29	2364	949	2706	0.74	0.56	1.0000 
	5	-5	-29	4844	1539	5004	-0.13	-1.38	1.0000 
	5	-5	-30	82940	32364	83060	-0.07	-0.39	1.0000 
	-5	-5	30	42727	11527	43287	-0.27	-0.49	1.0000 
	5	-5	-30	73448	28688	73561	-0.07	-0.39	1.0000 
	5	-5	-31	1049	335	1066	-0.06	0.97	1.0000 
	-5	-5	31	534	287	477	0.39	-1.08	1.0000 
	5	-5	-31	1541	503	1565	-0.06	0.97	1.0000 
	5	-5	-32	57363	30582	62524	2.32	-0.33	1.0000 
	5	-5	-32	45064	13688	49650	2.32	-0.33	1.0000 
	-6	0	2	365123	12532	365563	0	2.26	1.0000 
	-6	0	2	367005	12587	367446	0	2.26	1.0000 
	-6	0	2	356953	12301	357386	0	2.26	1.0000 
	-6	0	4	177151	6558	162891	3.79	2.24	1.0000 
	-6	0	4	175809	6432	161604	3.79	2.24	1.0000 
	6	0	4	179230	6289	165070	3.74	2.23	1.0000 
	-6	0	4	172138	6341	158084	3.79	2.24	1.0000 
	-6	0	6	34034	2245	33158	-0.54	0.35	1.0000 
	-6	0	6	34640	2143	33757	-0.54	0.35	1.0000 
	0	-6	-6	36022	1289	35204	-0.49	-0.31	1.0000 
	0	6	6	34925	1228	34119	-0.49	0.31	1.0000 
	-6	0	6	31837	2007	30990	-0.54	0.35	1.0000 
	-6	0	8	12332	2739	14124	1.71	-1.29	1.0000 
	-6	0	8	14733	2632	16690	1.71	-1.29	1.0000 
	-6	0	-8	11401	1225	13039	1.63	1.19	1.0000 
	0	-6	-8	11589	785	13305	1.69	1.25	1.0000 
	6	0	8	10756	1094	12347	1.63	-1.19	1.0000 
	0	6	8	10682	1764	12331	1.69	-1.25	1.0000 
	-6	0	8	12372	2258	14167	1.71	-1.29	1.0000 
	-6	0	10	14808	1045	11835	2.88	-0.31	1.0000 
	-6	0	-10	15089	1990	12099	2.88	0.45	1.0000 
	0	-6	-10	13952	1497	11078	2.89	0.51	1.0000 
	6	0	10	16666	3668	13515	2.88	-0.45	1.0000 
	0	6	10	14710	2530	11755	2.89	-0.51	1.0000 
	-6	0	10	15668	1073	12605	2.88	-0.31	1.0000 
	-6	0	-12	78256	4053	69288	-3.7	-0.77	1.0000 
	0	-6	-12	81434	3942	72350	-3.68	-0.86	1.0000 
	0	6	12	74200	3532	65540	-3.68	0.86	1.0000 
	-6	0	12	74921	3965	66081	-3.74	0.9	1.0000 
	0	-6	-14	189433	9510	183244	1.55	-1.42	1.0000 
	0	6	14	160372	7955	154679	1.55	1.42	1.0000 
	-6	0	14	173681	8802	168088	1.45	1.5	1.0000 
	-6	0	16	236557	11079	225851	-2.48	0.3	1.0000 
	-6	0	-16	241574	12545	230773	-2.47	-0.28	1.0000 
	0	-6	-16	254958	11554	243956	-2.45	-0.32	1.0000 
	6	0	16	241112	11215	230322	-2.47	0.28	1.0000 
	0	6	16	211156	9775	201154	-2.45	0.32	1.0000 
	-6	0	16	235910	11053	225219	-2.48	0.3	1.0000 
	-6	0	18	184167	19672	182336	0.48	-0.05	1.0000 
	-6	0	-18	191736	20475	190065	0.43	0.09	1.0000 
	0	-6	-18	195557	20573	193775	0.45	0.02	1.0000 
	0	6	18	160023	16950	158412	0.45	-0.02	1.0000 
	-6	0	18	178210	19027	176409	0.48	-0.05	1.0000 
	-6	0	-18	190851	19828	189184	0.43	0.09	1.0000 
	6	0	-18	159330	16823	157627	0.48	0.05	1.0000 
	0	-6	18	174083	18043	172357	0.46	-0.09	1.0000 
	-6	0	20	91855	12384	82927	-3.34	-0.18	1.0000 
	-6	0	-20	89468	12672	80694	-3.33	0.22	1.0000 
	0	-6	-20	79694	13541	71400	-3.34	0.24	1.0000 
	6	0	20	74804	15928	66800	-3.33	-0.22	1.0000 
	0	6	20	70694	13573	62895	-3.34	-0.24	1.0000 
	-6	0	20	81904	14427	73486	-3.34	-0.18	1.0000 
	-6	0	-20	96303	12528	87191	-3.33	0.22	1.0000 
	0	-6	-20	84818	10802	76254	-3.34	0.24	1.0000 
	6	0	-20	90889	11635	82010	-3.34	0.18	1.0000 
	0	-6	20	88922	11633	80152	-3.34	-0.19	1.0000 
	0	-6	-20	86842	11448	78174	-3.34	0.24	1.0000 
	0	6	22	13933	2223	11116	2.84	-1.01	1.0000 
	-6	0	-22	15723	3312	12728	2.83	0.93	1.0000 
	0	-6	-22	15716	2135	12716	2.84	1.01	1.0000 
	6	0	-22	14841	2990	11992	2.78	1	1.0000 
	0	-6	22	20546	2388	17163	2.78	-0.93	1.0000 
	0	-6	-22	19680	1720	16308	2.84	1.01	1.0000 
	0	-6	-22	14406	1816	11540	2.84	1.01	1.0000 
	-6	0	-24	10144	2916	8930	1.38	0.19	1.0000 
	0	-6	-24	12771	2186	11383	1.41	0.23	1.0000 
	6	0	-24	11835	2367	10495	1.41	0.19	1.0000 
	0	-6	24	14318	2439	12848	1.4	-0.18	1.0000 
	0	-6	-24	9593	1631	8395	1.41	0.23	1.0000 
	-6	0	-26	1565	425	1155	-1.71	-1.44	1.0000 
	0	-6	-26	1832	430	1384	-1.71	-1.39	1.0000 
	6	0	-26	2046	548	1572	-1.71	-1.38	1.0000 
	0	-6	26	2113	523	1637	-1.72	1.43	1.0000 
	0	-6	-26	1217	297	845	-1.71	-1.39	1.0000 
	-6	0	-28	9632	2819	8633	1.16	0	1.0000 
	0	-6	-28	11594	2854	10511	1.15	0.03	1.0000 
	6	0	-28	10725	2740	9686	1.16	0.13	1.0000 
	0	-6	28	13320	3142	12158	1.16	-0.12	1.0000 
	0	-6	-28	8610	1987	7681	1.15	0.03	1.0000 
	6	0	-28	10964	2490	9913	1.16	0.13	1.0000 
	-6	0	-30	29265	5462	28224	-0.68	0.02	1.0000 
	0	-6	-30	29979	5340	28890	-0.7	0.02	1.0000 
	6	0	-30	34944	7012	33822	-0.67	0.03	1.0000 
	0	-6	-30	23637	4598	22671	-0.7	0.02	1.0000 
	6	0	-30	32239	5738	31162	-0.67	0.03	1.0000 
	-6	0	-32	33161	9249	34241	-0.72	-1.57	1.0000 
	0	-6	-32	31409	8918	32449	-0.71	-1.59	1.0000 
	6	0	-32	33856	9960	34949	-0.72	-1.54	1.0000 
	0	-6	-32	21612	6751	22467	-0.71	-1.59	1.0000 
	6	0	-32	33019	9368	34098	-0.72	-1.54	1.0000 
	-6	0	-34	30222	7726	29000	-0.86	-0.91	1.0000 
	0	-6	-34	29775	7666	28529	-0.88	-0.92	1.0000 
	6	0	-34	32858	8811	31535	-0.89	-0.95	1.0000 
	0	-6	-34	17571	5131	16613	-0.88	-0.92	1.0000 
	6	0	-34	33567	8584	32230	-0.89	-0.95	1.0000 
	-6	1	0	404566	14524	427261	-3.9	0.15	1.0000 
	-6	1	0	407780	15728	430564	-3.9	0.15	1.0000 
	-6	1	0	403209	14474	425867	-3.9	0.15	1.0000 
	-6	-1	0	404203	14624	425805	-3.71	0.25	1.0000 
	-6	1	1	3541	3952	15036	-13.94	0.92	1.0000 
	-6	1	1	5055	2880	18013	-13.94	0.92	1.0000 
	-6	1	1	4743	3300	17420	-13.94	0.92	1.0000 
	-6	-1	2	311796	11033	318552	1.32	0.53	1.0000 
	-6	1	2	301954	10994	306327	0.84	1.24	1.0000 
	-6	-1	-2	312133	11795	318878	1.33	-0.04	1.0000 
	-6	1	2	304580	10738	308972	0.84	1.24	1.0000 
	-6	-1	2	315039	11157	321830	1.32	0.53	1.0000 
	-6	-1	-2	312054	11380	318799	1.33	-0.04	1.0000 
	-6	-1	2	305016	10848	311699	1.32	0.53	1.0000 
	-6	1	2	300207	10918	304567	0.84	1.24	1.0000 
	-6	-1	-2	314181	11902	320948	1.33	-0.04	1.0000 
	-6	-1	3	2083	2664	7683	3.55	9.06	1.0000 
	-6	-1	3	2000	1846	7519	3.55	9.06	1.0000 
	-6	-1	3	2336	2675	8172	3.55	9.06	1.0000 
	-6	-1	4	147581	5260	137246	3.05	-0.49	1.0000 
	-6	1	4	146226	6941	143545	0.78	-0.03	1.0000 
	-1	-6	-4	120285	3260	110554	3.19	0.47	1.0000 
	-6	-1	4	149104	5311	138715	3.05	-0.49	1.0000 
	-6	1	4	144001	5263	141341	0.78	-0.03	1.0000 
	-6	1	4	144152	6380	141491	0.78	-0.03	1.0000 
	-6	-1	4	149852	5343	139437	3.05	-0.49	1.0000 
	-6	1	5	4477	1164	3736	-1.48	-2.55	1.0000 
	-6	1	5	4288	1224	3560	-1.48	-2.55	1.0000 
	-1	-6	-5	1860	320	390	5.35	-2.65	1.0000 
	1	6	5	2054	311	492	5.35	2.65	1.0000 
	-6	1	5	4399	1293	3663	-1.48	-2.55	1.0000 
	-6	1	6	34011	1968	34806	0.49	-0.72	1.0000 
	-6	-1	6	33452	2310	33404	-0.1	1.52	1.0000 
	-6	-1	6	33512	2211	33464	-0.1	1.52	1.0000 
	-6	1	6	33843	1925	34636	0.49	-0.72	1.0000 
	-1	-6	-6	33720	1338	33690	-0.12	-1.96	1.0000 
	1	-6	-6	36101	1331	36876	0.46	0.95	1.0000 
	1	6	6	33710	1304	33680	-0.12	1.96	1.0000 
	-1	6	6	34056	1245	34808	0.46	-0.95	1.0000 
	-6	-1	6	32641	2453	32593	-0.1	1.52	1.0000 
	-6	1	6	32942	1906	33724	0.49	-0.72	1.0000 
	-6	-1	7	1276	385	996	-0.94	0.08	1.0000 
	-6	1	7	2384	475	1045	3.65	-0.17	1.0000 
	-6	1	7	2586	601	1180	3.65	-0.17	1.0000 
	-6	-1	7	2048	445	1689	-0.94	0.08	1.0000 
	-6	1	-7	2705	404	1271	3.65	-0.16	1.0000 
	-1	-6	-7	796	365	580	-0.92	-0.01	1.0000 
	1	-6	-7	1425	228	464	3.6	-0.03	1.0000 
	6	-1	7	2642	437	1228	3.65	0.16	1.0000 
	1	6	7	732	319	525	-0.92	0.01	1.0000 
	-1	6	7	1424	235	463	3.6	0.03	1.0000 
	-6	-1	7	1402	378	1108	-0.94	0.08	1.0000 
	-6	1	7	2513	586	1131	3.65	-0.17	1.0000 
	-6	-1	8	6631	854	8186	1.99	0.59	1.0000 
	-6	1	8	7134	1227	8042	1.07	1.57	1.0000 
	-6	-1	8	7062	928	8665	1.99	0.59	1.0000 
	-6	1	-8	7042	2825	7951	1.11	-1.24	1.0000 
	-1	-6	-8	6467	622	8013	2	-0.63	1.0000 
	1	-6	-8	5773	1243	6625	1.14	-1.39	1.0000 
	6	-1	8	6780	1485	7672	1.11	1.24	1.0000 
	1	6	8	6009	1041	7502	2	0.63	1.0000 
	-1	6	8	5720	1419	6568	1.14	1.39	1.0000 
	-6	-1	8	6341	913	7864	1.99	0.59	1.0000 
	-6	1	8	6864	951	7754	1.07	1.57	1.0000 
	-6	-1	9	3866	2181	5626	-2.9	1.75	1.0000 
	-6	1	9	5037	2150	5259	0.3	-0.73	1.0000 
	-6	-1	-9	2707	1610	4189	-2.89	-1.65	1.0000 
	-6	1	-9	5038	1671	5278	0.32	0.79	1.0000 
	-1	-6	-9	1545	1415	2693	-2.89	-1.54	1.0000 
	1	-6	-9	2672	1404	2828	0.29	0.63	1.0000 
	6	1	9	3219	1565	4827	-2.89	1.65	1.0000 
	6	-1	9	4272	1807	4492	0.32	-0.79	1.0000 
	1	6	9	1877	1226	3131	-2.89	1.54	1.0000 
	-1	6	9	2531	1126	2682	0.29	-0.63	1.0000 
	-6	1	9	4723	2003	4938	0.3	-0.73	1.0000 
	-6	-1	9	3376	1714	5027	-2.9	1.75	1.0000 
	-6	-1	10	2536	1163	4256	-3.25	-0.59	1.0000 
	-6	1	10	3117	1916	4491	-2.42	-0.63	1.0000 
	-6	-1	-10	1944	1198	3467	-3.19	0.96	1.0000 
	-6	1	-10	2515	1316	3821	-2.54	0.54	1.0000 
	-1	-6	-10	1453	1017	2796	-3.2	0.85	1.0000 
	1	-6	-10	1893	1151	3018	-2.5	0.46	1.0000 
	6	1	10	2448	1466	4132	-3.19	-0.96	1.0000 
	6	-1	10	2392	1093	3670	-2.54	-0.54	1.0000 
	1	6	10	1551	1184	2931	-3.2	-0.85	1.0000 
	-1	6	10	2095	934	3272	-2.5	-0.46	1.0000 
	-6	-1	10	2363	1052	4032	-3.25	-0.59	1.0000 
	-6	1	10	2835	1546	4151	-2.42	-0.63	1.0000 
	-6	-1	11	68	234	513	3.38	0.48	1.0000 
	-6	1	11	56	337	472	-3.75	-1.59	1.0000 
	-6	-1	-11	89	246	566	3.35	-0.49	1.0000 
	-6	1	-11	49	335	395	-3.79	1.82	1.0000 
	-1	-6	-11	11	147	243	3.37	-0.48	1.0000 
	1	-6	-11	51	135	214	-3.74	1.76	1.0000 
	6	1	11	41	161	419	3.35	0.49	1.0000 
	1	6	11	11	189	238	3.37	0.48	1.0000 
	-6	-1	11	40	209	420	3.38	0.48	1.0000 
	-6	1	11	70	298	536	-3.75	-1.59	1.0000 
	-6	1	12	23626	2219	25460	1.18	1.55	1.0000 
	-6	-1	12	24182	3050	24689	0.37	-0.16	1.0000 
	-6	-1	-12	25879	3905	26458	0.43	0.62	1.0000 
	-6	1	-12	21968	2911	23594	1.05	-1.76	1.0000 
	-1	-6	-12	22106	2701	22548	0.35	0.39	1.0000 
	1	-6	-12	24303	1746	26006	1.04	-1.87	1.0000 
	6	1	12	25187	4172	25758	0.43	-0.62	1.0000 
	1	6	12	24329	1836	24793	0.35	-0.39	1.0000 
	-1	6	12	19841	2433	21376	1.04	1.87	1.0000 
	-6	-1	12	26514	5807	27045	0.37	-0.16	1.0000 
	-6	1	12	22331	1949	24114	1.18	1.55	1.0000 
	-6	-1	-13	4623	789	1926	-5.43	0.65	1.0000 
	-6	1	-13	3531	953	2463	2.16	-0.47	1.0000 
	-1	-6	-13	4208	714	1657	-5.44	0.66	1.0000 
	1	-6	-13	2047	541	1239	2.21	-0.58	1.0000 
	6	-1	13	3600	543	2520	2.16	0.47	1.0000 
	6	1	13	4967	806	2151	-5.43	-0.65	1.0000 
	-1	6	13	2623	338	1695	2.21	0.58	1.0000 
	-6	-1	13	6324	925	3129	-5.37	-0.83	1.0000 
	-6	1	13	4205	585	2990	2.25	0.71	1.0000 
	-6	-1	14	64557	3923	67350	-1.24	0.74	1.0000 
	-6	1	14	61969	3840	65795	-1.74	2.09	1.0000 
	-6	-1	-14	58727	3850	61449	-1.26	-0.57	1.0000 
	-6	1	-14	62645	4004	66841	-1.89	-2.23	1.0000 
	-1	-6	-14	66379	4080	69229	-1.24	-0.62	1.0000 
	1	-6	-14	65087	3913	69304	-1.87	-2.2	1.0000 
	6	-1	14	60774	4757	64906	-1.89	2.23	1.0000 
	6	1	14	59768	3746	62514	-1.26	0.57	1.0000 
	-1	6	14	45718	4829	49246	-1.87	2.2	1.0000 
	-6	-1	14	63470	3880	66240	-1.24	0.74	1.0000 
	-6	1	14	61875	3882	65698	-1.74	2.09	1.0000 
	-6	1	15	12061	2377	9333	-2.93	0.47	1.0000 
	-6	-1	-15	10833	2436	7298	4.16	1	1.0000 
	-6	1	-15	10172	2831	7650	-2.97	-0.44	1.0000 
	-1	-6	-15	9921	1869	6569	4.15	1.16	1.0000 
	1	-6	-15	9149	1421	6778	-2.96	-0.54	1.0000 
	6	1	15	11645	2402	7968	4.16	-1	1.0000 
	6	-1	15	11453	2224	8766	-2.97	0.44	1.0000 
	1	6	15	12775	1752	8930	4.15	-1.16	1.0000 
	-1	6	15	7691	1459	5531	-2.96	0.54	1.0000 
	-6	-1	15	14257	2453	10163	4.16	-1.07	1.0000 
	-6	1	15	14008	2481	11055	-2.93	0.47	1.0000 
	-6	1	16	80415	4696	79896	-0.16	-1.33	1.0000 
	-6	1	-16	78405	6379	77810	-0.19	1.15	1.0000 
	-6	-1	-16	86992	4882	82993	-1.58	-1.07	1.0000 
	-1	-6	-16	87491	4782	83372	-1.61	-0.96	1.0000 
	1	-6	-16	87210	4758	86609	-0.18	1.21	1.0000 
	6	1	16	88935	4826	84891	-1.58	1.07	1.0000 
	1	6	16	81019	4463	77057	-1.61	0.96	1.0000 
	-1	6	16	70460	4042	69917	-0.18	-1.21	1.0000 
	-6	1	16	78621	4681	78107	-0.16	-1.33	1.0000 
	-6	-1	16	83717	4950	79767	-1.59	1.04	1.0000 
	-6	-1	-16	84463	3962	80523	-1.58	-1.07	1.0000 
	6	-1	-16	71912	3805	71419	-0.16	1.33	1.0000 
	-1	-6	16	80130	4918	76360	-1.56	1.14	1.0000 
	1	-6	16	71830	3553	71332	-0.16	-1.26	1.0000 
	-6	1	17	13942	2305	13033	0.9	-0.91	1.0000 
	-6	1	-17	8870	2628	8120	0.92	0.72	1.0000 
	-6	-1	-17	9846	2663	10075	0.24	0.44	1.0000 
	-1	-6	-17	7927	2372	8140	0.25	0.56	1.0000 
	1	-6	-17	9604	2052	8850	0.89	0.63	1.0000 
	6	1	17	9258	2863	9480	0.24	-0.44	1.0000 
	6	-1	17	9173	2407	8410	0.92	-0.72	1.0000 
	1	6	17	8445	2214	8665	0.25	-0.56	1.0000 
	-1	6	17	9577	1523	8824	0.89	-0.63	1.0000 
	-6	-1	17	11590	1868	11848	0.25	-0.54	1.0000 
	-6	1	17	13367	2896	12477	0.9	-0.91	1.0000 
	-6	-1	-17	8706	2122	8921	0.24	0.44	1.0000 
	6	-1	-17	13038	1509	12159	0.9	0.91	1.0000 
	6	1	-17	10383	2063	10627	0.25	0.54	1.0000 
	-1	-6	17	10428	2034	10668	0.25	-0.44	1.0000 
	1	-6	17	15221	2175	14231	0.94	-0.99	1.0000 
	-6	-1	18	61347	6120	61988	-0.28	-0.05	1.0000 
	-6	1	18	62082	11422	62493	-0.16	-0.49	1.0000 
	-6	-1	-18	58010	7121	58555	-0.25	-0.07	1.0000 
	-1	-6	-18	64388	8482	65076	-0.3	0.07	1.0000 
	1	-6	-18	62151	8018	62478	-0.12	0.58	1.0000 
	6	1	18	58195	7153	58740	-0.25	0.07	1.0000 
	1	6	18	51442	6841	52057	-0.3	-0.07	1.0000 
	-1	6	18	54708	7680	55015	-0.12	-0.58	1.0000 
	-6	-1	18	60733	10998	61371	-0.28	-0.05	1.0000 
	-6	1	18	58798	9268	59198	-0.16	-0.49	1.0000 
	-6	-1	-18	61366	5831	61926	-0.25	-0.07	1.0000 
	6	1	-18	56780	5553	57397	-0.28	0.05	1.0000 
	6	-1	-18	60942	5656	61349	-0.16	0.49	1.0000 
	1	-6	18	63836	5898	64348	-0.2	-0.46	1.0000 
	-1	-6	18	62378	5903	62934	-0.25	0.04	1.0000 
	-6	1	19	15694	3117	14693	-0.89	-1.26	1.0000 
	-6	-1	19	14661	2448	12082	2.47	-0.18	1.0000 
	-6	-1	-19	13946	3156	11480	2.42	0.22	1.0000 
	-1	-6	-19	16059	2404	13388	2.43	0.23	1.0000 
	1	-6	-19	14405	2265	13420	-0.91	1.16	1.0000 
	6	1	19	15247	2962	12663	2.42	-0.22	1.0000 
	1	6	19	13380	2480	10953	2.43	-0.23	1.0000 
	-1	6	19	12046	2501	11145	-0.91	-1.16	1.0000 
	-6	-1	19	18798	2513	15862	2.47	-0.18	1.0000 
	-6	1	19	16333	1956	15312	-0.89	-1.26	1.0000 
	-6	-1	-19	14700	2706	12165	2.42	0.22	1.0000 
	-1	-6	-19	12013	1743	9719	2.43	0.23	1.0000 
	1	-6	-19	9980	1651	9159	-0.91	1.16	1.0000 
	6	1	-19	16836	2413	14064	2.47	0.18	1.0000 
	6	-1	-19	16125	1627	15111	-0.89	1.26	1.0000 
	1	-6	19	16164	2253	15174	-0.87	-1.31	1.0000 
	-1	-6	19	22000	2980	18826	2.46	-0.16	1.0000 
	1	-6	-19	16114	1826	15073	-0.91	1.16	1.0000 
	-1	-6	-19	9893	1599	7823	2.43	0.23	1.0000 
	-6	-1	20	19691	6345	18091	-1.28	-0.13	1.0000 
	-6	1	20	26897	4880	24341	-1.76	-0.21	1.0000 
	-6	-1	-20	17776	6133	16310	-1.23	0.26	1.0000 
	1	-6	-20	25255	4475	22782	-1.75	0.34	1.0000 
	-1	-6	-20	23235	4653	21515	-1.26	0.29	1.0000 
	6	1	20	22837	5836	21171	-1.23	-0.26	1.0000 
	1	6	20	19240	4704	17678	-1.26	-0.29	1.0000 
	-1	6	20	21851	4587	19555	-1.75	-0.34	1.0000 
	-6	-1	20	28218	5254	26296	-1.28	-0.13	1.0000 
	-6	1	20	27639	4456	25047	-1.76	-0.21	1.0000 
	-6	-1	-20	25007	4324	23263	-1.23	0.26	1.0000 
	-1	-6	-20	25193	3720	23401	-1.26	0.29	1.0000 
	1	-6	-20	19547	3729	17379	-1.75	0.34	1.0000 
	6	1	-20	26830	3707	24957	-1.28	0.13	1.0000 
	6	-1	-20	28526	4406	25891	-1.76	0.21	1.0000 
	1	-6	20	29747	3939	27048	-1.77	-0.19	1.0000 
	-1	-6	20	29963	4836	28013	-1.26	-0.11	1.0000 
	-1	-6	-20	23659	4422	21923	-1.26	0.29	1.0000 
	1	-6	-20	30150	4854	27442	-1.75	0.34	1.0000 
	-1	-6	-20	18691	3623	17152	-1.26	0.29	1.0000 
	1	-6	-20	14371	2257	12521	-1.75	0.34	1.0000 
	-6	-1	21	12422	3509	11101	-1.37	0.58	1.0000 
	-6	1	21	15697	3428	13994	1.53	-1.23	1.0000 
	-6	-1	-21	11349	3423	10048	-1.41	-0.43	1.0000 
	1	-6	-21	15295	2764	13604	1.54	1.3	1.0000 
	-1	-6	-21	14093	2762	12667	-1.39	-0.51	1.0000 
	6	1	21	13435	3278	12016	-1.41	0.43	1.0000 
	1	6	21	13166	2729	11789	-1.39	0.51	1.0000 
	-1	6	21	12795	2450	11250	1.54	-1.3	1.0000 
	-6	-1	21	17668	3316	16087	-1.37	0.58	1.0000 
	-6	1	21	15512	2895	13819	1.53	-1.23	1.0000 
	-6	-1	-21	17187	2835	15577	-1.41	-0.43	1.0000 
	-1	-6	-21	13752	2916	12344	-1.39	-0.51	1.0000 
	1	-6	-21	13857	2500	12248	1.54	1.3	1.0000 
	6	1	-21	18738	2664	17109	-1.37	-0.58	1.0000 
	6	-1	-21	17415	3285	15620	1.53	1.23	1.0000 
	1	-6	21	21347	3714	19387	1.5	-1.31	1.0000 
	-1	-6	21	20805	3437	19049	-1.4	0.51	1.0000 
	1	-6	-21	19284	2961	17383	1.54	1.3	1.0000 
	-1	-6	-21	12983	2286	11616	-1.39	-0.51	1.0000 
	1	-6	-21	13659	2208	12062	1.54	1.3	1.0000 
	1	-6	-22	671	597	1740	-3.52	-0.22	1.0000 
	-1	-6	-22	651	531	1609	-3.28	-0.91	1.0000 
	1	6	22	669	536	1637	-3.28	0.91	1.0000 
	-1	6	22	603	577	1629	-3.52	0.22	1.0000 
	-6	-1	-22	187830	50039	200848	-3.26	-0.9	1.0000 
	-1	-6	-22	887	577	1973	-3.28	-0.91	1.0000 
	1	-6	-22	866	631	2046	-3.52	-0.22	1.0000 
	6	1	-22	1832	957	3286	-3.23	-0.97	1.0000 
	6	-1	-22	1300	866	2680	-3.5	-0.19	1.0000 
	1	-6	22	1531	872	2997	-3.47	0.27	1.0000 
	-1	-6	22	2136	1092	3683	-3.22	0.96	1.0000 
	1	-6	-22	1149	733	2471	-3.52	-0.22	1.0000 
	-1	-6	-22	653	480	1611	-3.28	-0.91	1.0000 
	1	-6	-22	683	470	1759	-3.52	-0.22	1.0000 
	-6	-1	-23	10970	2724	10450	0.54	-0.34	1.0000 
	-1	-6	-23	11870	1780	11310	0.56	-0.34	1.0000 
	1	-6	-23	10389	1517	11047	0.69	0.34	1.0000 
	6	1	-23	15041	2090	14409	0.56	-0.42	1.0000 
	6	-1	-23	11376	2253	12068	0.69	0.35	1.0000 
	-1	-6	23	15149	1888	14532	0.55	0.41	1.0000 
	1	-6	23	13605	1470	14346	0.68	-0.25	1.0000 
	1	-6	-23	11762	1257	12462	0.69	0.34	1.0000 
	-1	-6	-23	10567	1223	10039	0.56	-0.34	1.0000 
	1	-6	-23	9958	1033	10603	0.69	0.34	1.0000 
	-6	-1	-24	17380	3296	17514	-0.1	-1.34	1.0000 
	-1	-6	-24	18118	3985	18251	-0.1	-1.45	1.0000 
	1	-6	-24	18578	3358	17533	0.88	0.62	1.0000 
	6	1	-24	21091	4442	21209	-0.08	-1.35	1.0000 
	6	-1	-24	22206	3991	21067	0.88	0.85	1.0000 
	-1	-6	24	21873	4312	21996	-0.08	1.27	1.0000 
	1	-6	24	24993	4501	23814	0.86	-0.81	1.0000 
	1	-6	-24	20004	3532	18919	0.88	0.62	1.0000 
	-1	-6	-24	17311	3356	17440	-0.1	-1.45	1.0000 
	1	-6	-24	19270	3232	18205	0.88	0.62	1.0000 
	-6	-1	-25	10538	3631	12956	2.49	0.55	1.0000 
	-1	-6	-25	10837	2779	13336	2.54	0.61	1.0000 
	1	-6	-25	12610	3031	14097	-1.43	0.1	1.0000 
	6	1	-25	15267	3685	18159	2.5	0.59	1.0000 
	6	-1	-25	14105	3850	15657	-1.41	0.16	1.0000 
	-1	-6	25	14595	3281	17376	2.45	-0.54	1.0000 
	1	-6	25	18148	3733	19874	-1.39	-0.12	1.0000 
	1	-6	-25	12619	2563	14106	-1.43	0.1	1.0000 
	-1	-6	-25	10438	2589	12893	2.54	0.61	1.0000 
	1	-6	-25	12005	2606	13456	-1.43	0.1	1.0000 
	-6	-1	-26	1474	670	1837	1.04	0.67	1.0000 
	1	-6	-26	2770	728	2282	-1.15	-0.42	1.0000 
	-1	-6	-26	1476	590	1843	1.05	0.65	1.0000 
	6	1	-26	2145	815	2574	1.03	0.78	1.0000 
	6	-1	-26	2634	690	2155	-1.12	-0.19	1.0000 
	-1	-6	26	1915	701	2319	1.03	-0.82	1.0000 
	1	-6	26	2986	770	2461	-1.15	0.22	1.0000 
	-1	-6	-26	778	333	1047	1.05	0.65	1.0000 
	1	-6	-26	1774	406	1387	-1.15	-0.42	1.0000 
	-6	-1	-27	3525	1336	3224	0.57	-0.02	1.0000 
	1	-6	-27	3627	1090	4034	0.73	0.06	1.0000 
	-1	-6	-27	3983	1190	3667	0.56	-0.16	1.0000 
	6	1	-27	4779	1293	4428	0.56	-0.25	1.0000 
	6	-1	-27	4199	1382	4638	0.73	0.02	1.0000 
	1	-6	27	4402	1332	4859	0.74	-0.04	1.0000 
	-1	-6	27	5114	1286	4744	0.58	0.13	1.0000 
	-1	-6	-27	3437	1013	3144	0.56	-0.16	1.0000 
	1	-6	-27	2404	900	2737	0.73	0.06	1.0000 
	6	-1	-27	4318	1210	4763	0.73	0.02	1.0000 
	-6	-1	-28	4706	2254	5385	-1.07	-0.08	1.0000 
	1	-6	-28	7472	2262	8356	-1.05	0.52	1.0000 
	-1	-6	-28	6279	1978	7069	-1.07	0.01	1.0000 
	6	1	-28	6679	2257	7484	-1.06	0.03	1.0000 
	6	-1	-28	7072	2126	7898	-1	0.56	1.0000 
	-1	-6	28	6915	1937	7727	-1.06	0.06	1.0000 
	1	-6	28	7624	2359	8441	-0.97	-0.45	1.0000 
	-1	-6	-28	5705	1720	6459	-1.07	0.01	1.0000 
	1	-6	-28	5162	1550	5900	-1.05	0.52	1.0000 
	6	1	-28	8041	2194	8922	-1.06	0.03	1.0000 
	6	-1	-28	7467	2082	8315	-1	0.56	1.0000 
	-6	-1	-29	329	162	241	-0.72	-0.48	1.0000 
	1	-6	-29	344	143	319	0.22	-0.55	1.0000 
	-1	-6	-29	453	253	355	-0.72	-0.54	1.0000 
	6	1	-29	715	402	602	-0.74	-0.66	1.0000 
	6	-1	-29	528	242	496	0.22	-0.48	1.0000 
	-1	-6	29	770	346	646	-0.75	0.62	1.0000 
	-1	-6	-29	356	186	268	-0.72	-0.54	1.0000 
	1	-6	-29	130	109	112	0.22	-0.55	1.0000 
	6	-1	-29	710	295	673	0.22	-0.48	1.0000 
	6	1	-29	858	391	735	-0.74	-0.66	1.0000 
	-6	-1	-30	18574	4194	18895	0.3	0.92	1.0000 
	1	-6	-30	17990	4000	19648	1.37	0.49	1.0000 
	-1	-6	-30	18351	3909	18675	0.31	0.91	1.0000 
	6	1	-30	19540	4271	19904	0.33	0.89	1.0000 
	6	-1	-30	21798	4869	23679	1.41	0.54	1.0000 
	-1	-6	30	20641	4142	21020	0.34	-0.9	1.0000 
	-1	-6	-30	15140	3164	15432	0.31	0.91	1.0000 
	1	-6	-30	13638	3101	15085	1.37	0.49	1.0000 
	6	-1	-30	21010	4227	22858	1.41	0.54	1.0000 
	6	1	-30	20686	3805	21061	0.33	0.89	1.0000 
	-6	-1	-31	257	145	237	-0.16	0.39	1.0000 
	1	-6	-31	662	313	648	0.06	0.06	1.0000 
	-1	-6	-31	504	241	476	-0.17	0.4	1.0000 
	6	1	-31	637	276	610	-0.14	0.33	1.0000 
	6	-1	-31	846	380	830	0.06	0.05	1.0000 
	-1	-6	31	862	395	829	-0.15	-0.32	1.0000 
	-1	-6	-31	101	97	87	-0.17	0.4	1.0000 
	1	-6	-31	243	175	234	0.06	0.06	1.0000 
	6	-1	-31	827	466	811	0.06	0.05	1.0000 
	6	1	-31	989	461	955	-0.14	0.33	1.0000 
	-1	-6	-32	18461	5629	18590	-0.07	0.52	1.0000 
	-6	-1	-32	22745	6635	22913	-0.08	0.6	1.0000 
	1	-6	-32	20164	6451	20903	-0.52	0.69	1.0000 
	6	-1	-32	24186	7380	25009	-0.53	0.69	1.0000 
	6	1	-32	25825	7347	25934	-0.04	0.52	1.0000 
	1	-6	-32	18562	5422	19271	-0.52	0.69	1.0000 
	-1	-6	-32	14878	4538	14993	-0.07	0.52	1.0000 
	6	1	-32	25292	6929	25400	-0.04	0.52	1.0000 
	6	-1	-32	24074	6834	24895	-0.53	0.69	1.0000 
	-1	-6	-33	2272	779	2370	-0.23	-0.5	1.0000 
	-6	-1	-33	2256	786	2359	-0.24	-0.56	1.0000 
	1	-6	-33	2761	635	2107	-1.48	0.21	1.0000 
	6	-1	-33	4977	1215	4088	-1.47	0.24	1.0000 
	6	1	-33	3400	1110	3532	-0.25	-0.5	1.0000 
	1	-6	-33	1696	358	1193	-1.48	0.21	1.0000 
	-1	-6	-33	1040	355	1105	-0.23	-0.5	1.0000 
	6	-1	-33	4927	1236	4043	-1.47	0.24	1.0000 
	6	1	-33	3777	1130	3916	-0.25	-0.5	1.0000 
	-6	-1	-34	22246	6025	20598	-1.22	0.54	1.0000 
	-1	-6	-34	18589	4997	17085	-1.22	0.55	1.0000 
	1	-6	-34	17141	4791	16187	-0.8	0.43	1.0000 
	6	1	-34	25021	6388	23276	-1.22	0.58	1.0000 
	6	-1	-34	23354	6374	22226	-0.81	0.39	1.0000 
	1	-6	-34	11332	3344	10558	-0.8	0.43	1.0000 
	-1	-6	-34	11827	3323	10633	-1.22	0.55	1.0000 
	6	1	-34	24448	6061	22723	-1.22	0.58	1.0000 
	6	-1	-34	22004	5628	20909	-0.81	0.39	1.0000 
	-6	-2	0	67090	2883	60174	3.03	-0.28	1.0000 
	-6	2	0	57788	3201	60608	-1.29	0.3	1.0000 
	-6	2	0	58800	3245	61644	-1.29	0.3	1.0000 
	-6	-2	0	68607	2919	61611	3.03	-0.28	1.0000 
	-6	-2	0	66793	2903	59892	3.03	-0.28	1.0000 
	-6	2	0	56695	3112	59488	-1.29	0.3	1.0000 
	-6	-2	1	2219	1839	3788	3.2	0.21	1.0000 
	-6	2	1	1766	858	3290	-2.44	-3.14	1.0000 
	-6	2	1	2172	1116	3846	-2.44	-3.14	1.0000 
	-6	-2	1	2123	1284	3662	3.2	0.21	1.0000 
	-6	-2	1	2183	1198	3741	3.2	0.21	1.0000 
	-6	2	1	1885	958	3454	-2.44	-3.14	1.0000 
	-6	-2	2	49535	2346	48785	-0.39	0.58	1.0000 
	-2	-6	-2	49872	1627	49131	-0.39	-0.62	1.0000 
	-6	2	2	47962	2356	49669	0.84	0.43	1.0000 
	-6	-2	-2	50920	2655	50086	-0.43	-0.46	1.0000 
	-2	-6	-2	47833	1561	47107	-0.39	-0.62	1.0000 
	-6	2	2	48077	2338	49786	0.84	0.43	1.0000 
	-6	-2	2	50544	2371	49786	-0.39	0.58	1.0000 
	-6	-2	-2	52267	2664	51422	-0.43	-0.46	1.0000 
	-6	2	2	47913	2337	49619	0.84	0.43	1.0000 
	-2	-6	-2	50761	1651	50013	-0.39	-0.62	1.0000 
	-6	-2	-2	52405	2632	51558	-0.43	-0.46	1.0000 
	-6	-2	2	50424	2346	49667	-0.39	0.58	1.0000 
	-2	-6	-3	2750	527	836	-5.5	2.6	1.0000 
	-2	-6	-3	2004	467	424	-5.5	2.6	1.0000 
	-2	-6	-3	4546	634	1999	-5.5	2.6	1.0000 
	-2	-6	-4	26375	1158	27523	-0.74	0.97	1.0000 
	-2	-6	-4	25764	1127	26898	-0.74	0.97	1.0000 
	-6	-2	4	27813	1951	28914	-0.7	-0.75	1.0000 
	-6	-2	5	27099	1666	25958	0.73	1.93	1.0000 
	-6	-2	5	27135	1635	25994	0.73	1.93	1.0000 
	-2	-6	-5	24273	1077	23194	0.73	-1.47	1.0000 
	2	6	5	25300	1072	24199	0.73	1.47	1.0000 
	-6	-2	5	24466	1508	23379	0.73	1.93	1.0000 
	-2	-6	-6	5177	643	9188	5.26	-0.89	1.0000 
	2	-6	-6	6409	1061	9601	3.96	-0.37	1.0000 
	6	-2	6	7977	1392	11456	3.92	-0.03	1.0000 
	2	6	6	5186	873	9200	5.26	0.89	1.0000 
	-2	6	6	4337	1306	7020	3.96	0.37	1.0000 
	-6	-2	7	53191	3340	62419	4.19	1.47	1.0000 
	-6	2	7	59457	3316	61862	-1.12	-1.56	1.0000 
	-6	-2	7	54910	4295	64280	4.19	1.47	1.0000 
	-2	-6	-7	56221	2499	65602	4.16	-1.2	1.0000 
	2	6	7	54474	2377	63713	4.16	1.2	1.0000 
	-2	6	7	46101	1856	48101	-1.06	-1.48	1.0000 
	-6	-2	7	52711	3003	61898	4.19	1.47	1.0000 
	-6	2	7	58093	3108	60470	-1.12	-1.56	1.0000 
	-6	-2	8	8519	2745	9938	1.33	2.55	1.0000 
	-6	2	8	5741	2904	9127	4.37	0.27	1.0000 
	-6	-2	8	10180	2739	11737	1.33	2.55	1.0000 
	-2	-6	-8	3779	1762	4723	1.29	-2.92	1.0000 
	-6	-2	-8	7620	2118	8983	1.26	-2.94	1.0000 
	2	-6	-8	1572	1602	3505	4.33	-0.24	1.0000 
	6	2	8	7566	2812	8924	1.26	2.94	1.0000 
	2	6	8	3620	1832	4542	1.29	2.92	1.0000 
	-2	6	8	1521	1088	3429	4.33	0.24	1.0000 
	-6	2	8	5518	3216	8845	4.37	0.27	1.0000 
	-6	-2	8	7994	2493	9367	1.33	2.55	1.0000 
	-6	2	9	117471	6493	127620	3.17	1.14	1.0000 
	-6	-2	-9	124435	8072	121502	0.89	3.14	1.0000 
	-2	-6	-9	137881	6498	134583	0.96	3.18	1.0000 
	6	2	9	121363	6019	118464	0.89	-3.14	1.0000 
	2	6	9	136124	6371	132846	0.96	-3.18	1.0000 
	-2	6	9	90215	4933	99282	3.23	1.16	1.0000 
	-6	2	9	112438	7122	122372	3.17	1.14	1.0000 
	-2	6	10	477	723	654	0.66	2.05	1.0000 
	-6	2	10	3848	1780	4408	0.69	1.77	1.0000 
	-6	-2	-10	1507	1261	2935	3.41	-0.09	1.0000 
	-2	-6	-10	297	1703	1059	3.41	-0.19	1.0000 
	2	-6	-10	750	1084	989	0.66	-2.05	1.0000 
	6	2	10	1535	1299	2975	3.41	0.09	1.0000 
	2	6	10	404	1644	1255	3.41	0.19	1.0000 
	-2	6	10	833	758	1088	0.66	2.05	1.0000 
	-2	6	11	63317	3991	65909	-1.15	1.03	1.0000 
	-6	-2	-11	88995	4722	84726	-1.6	-0.01	1.0000 
	-2	-6	-11	92480	4724	88307	-1.54	0.12	1.0000 
	2	-6	-11	90024	4696	93115	-1.15	-1.03	1.0000 
	6	2	11	87244	4521	83017	-1.6	0.01	1.0000 
	2	6	11	88225	4333	84150	-1.54	-0.12	1.0000 
	-2	6	11	61354	4173	63906	-1.15	1.03	1.0000 
	-6	-2	11	88235	6063	84304	-1.48	-0.09	1.0000 
	-2	6	12	534	435	432	-0.47	-0.52	1.0000 
	-6	-2	12	2766	990	3110	0.47	1.14	1.0000 
	-6	-2	-12	608	1716	755	0.43	-1.19	1.0000 
	-2	-6	-12	17	784	12	0.45	-1.06	1.0000 
	2	-6	-12	668	840	554	-0.47	0.52	1.0000 
	6	2	12	1702	1301	1959	0.43	1.19	1.0000 
	2	6	12	1233	632	1446	0.45	1.06	1.0000 
	-2	6	12	856	620	727	-0.47	-0.52	1.0000 
	-6	-2	12	3092	1107	3456	0.47	1.14	1.0000 
	-2	6	13	23753	3545	19605	-3.11	-0.77	1.0000 
	-6	-2	13	38107	2600	29013	5.49	-0.9	1.0000 
	-6	-2	-13	38695	2529	29574	5.46	0.87	1.0000 
	-2	-6	-13	36194	4214	27322	5.51	0.97	1.0000 
	2	-6	-13	35246	3509	30152	-3.11	0.77	1.0000 
	2	6	13	41740	2112	32167	5.51	-0.97	1.0000 
	6	2	13	39595	2811	30362	5.46	-0.87	1.0000 
	-2	6	13	21914	4504	17937	-3.11	-0.77	1.0000 
	-6	-2	13	38980	2611	29775	5.49	-0.9	1.0000 
	-2	6	14	4634	2852	4323	0.61	-1.62	1.0000 
	-6	-2	14	14246	2169	14080	0.13	0.85	1.0000 
	-6	-2	-14	10854	3592	10779	0.05	-0.81	1.0000 
	-6	2	-14	13107	3515	12590	0.64	1.66	1.0000 
	-2	-6	-14	10628	2188	10542	0.07	-0.79	1.0000 
	2	-6	-14	10632	2266	10188	0.61	1.62	1.0000 
	6	-2	14	9673	3928	9221	0.64	-1.66	1.0000 
	2	6	14	13489	2974	13394	0.07	0.79	1.0000 
	6	2	14	12353	3148	12274	0.05	0.81	1.0000 
	-2	6	14	7646	2132	7261	0.61	-1.62	1.0000 
	-6	2	14	14760	2585	14254	0.59	-1.54	1.0000 
	-6	-2	14	14643	2483	14475	0.13	0.85	1.0000 
	-2	6	15	924	651	745	0.69	1.6	1.0000 
	-6	-2	15	3772	756	2547	-2.79	-2.26	1.0000 
	-6	-2	-15	3188	695	2034	-2.85	2.22	1.0000 
	-6	2	-15	3170	662	2847	0.74	-1.5	1.0000 
	-2	-6	-15	2676	554	1645	-2.79	2.29	1.0000 
	2	-6	-15	2186	523	1936	0.69	-1.6	1.0000 
	6	-2	15	1875	731	1618	0.74	1.5	1.0000 
	2	6	15	3212	484	2085	-2.79	-2.29	1.0000 
	6	2	15	3801	580	2542	-2.85	-2.22	1.0000 
	-2	6	15	1968	374	1728	0.69	1.6	1.0000 
	-6	2	15	3132	683	2846	0.67	1.54	1.0000 
	-6	-2	15	3931	577	2681	-2.79	-2.26	1.0000 
	-6	-2	-15	2762	684	1687	-2.85	2.22	1.0000 
	-2	-6	15	2719	645	1652	-2.84	-2.19	1.0000 
	-2	6	16	7832	5480	7915	0.08	0.55	1.0000 
	-6	2	16	24028	5003	24157	0.08	0.31	1.0000 
	-6	-2	-16	16057	6423	17239	1.04	1.27	1.0000 
	-6	2	-16	22368	6155	22490	0.07	-0.52	1.0000 
	-2	-6	-16	17456	4338	18684	1.04	1.2	1.0000 
	2	-6	-16	18052	4959	18181	0.08	-0.55	1.0000 
	6	-2	16	15522	5344	15623	0.07	0.52	1.0000 
	6	2	16	21477	6792	22846	1.04	-1.27	1.0000 
	2	6	16	20427	5029	21756	1.04	-1.2	1.0000 
	-2	6	16	17544	3795	17671	0.08	0.55	1.0000 
	-6	2	16	22290	4639	22414	0.08	0.31	1.0000 
	-6	-2	-16	20888	2677	22238	1.04	1.27	1.0000 
	6	-2	-16	21494	2644	21616	0.08	-0.31	1.0000 
	-2	-6	16	20610	3317	21930	1.03	-1.25	1.0000 
	-2	6	17	580	513	506	0.34	0.21	1.0000 
	-6	2	17	2039	610	1874	0.41	0.2	1.0000 
	-6	2	-17	1495	458	1387	0.31	-0.23	1.0000 
	-2	-6	-17	1120	346	1369	0.81	-0.64	1.0000 
	-6	-2	-17	1047	537	1292	0.82	-0.64	1.0000 
	2	-6	-17	2186	434	2040	0.34	-0.21	1.0000 
	6	-2	17	1344	585	1242	0.31	0.23	1.0000 
	6	2	17	1592	535	1893	0.82	0.64	1.0000 
	2	6	17	1507	359	1796	0.81	0.64	1.0000 
	-2	6	17	1855	385	1721	0.34	0.21	1.0000 
	-6	2	17	2993	581	2792	0.41	0.2	1.0000 
	-6	-2	-17	1370	447	1650	0.82	-0.64	1.0000 
	-6	2	-17	1141	248	1047	0.31	-0.23	1.0000 
	6	-2	-17	2881	690	2684	0.41	-0.2	1.0000 
	-2	-6	17	3281	895	3711	0.81	0.77	1.0000 
	-6	2	18	26359	6168	29870	-2.32	0.03	1.0000 
	-6	2	-18	22452	7161	25669	-2.3	-0.07	1.0000 
	-2	-6	-18	25517	4721	28959	-2.3	0.23	1.0000 
	-6	-2	-18	25988	3953	29513	-2.34	0.28	1.0000 
	2	-6	-18	25544	5982	28962	-2.3	-0.06	1.0000 
	6	2	18	26751	4146	30326	-2.34	-0.28	1.0000 
	6	-2	18	23588	4110	26882	-2.3	0.07	1.0000 
	2	6	18	20863	5141	23986	-2.3	-0.23	1.0000 
	-2	6	18	21420	5099	24559	-2.3	0.06	1.0000 
	-6	2	18	29766	5763	33490	-2.32	0.03	1.0000 
	-6	-2	-18	24893	3561	28345	-2.34	0.28	1.0000 
	-6	2	-18	23994	3388	27316	-2.3	-0.07	1.0000 
	-2	-6	-18	15599	3204	18314	-2.3	0.23	1.0000 
	6	-2	-18	25720	2976	29189	-2.32	-0.03	1.0000 
	2	-6	18	26338	4283	29847	-2.32	0.05	1.0000 
	-2	-6	18	25832	4240	29379	-2.36	-0.29	1.0000 
	6	-2	-18	23557	2942	26882	-2.32	-0.03	1.0000 
	-2	-6	-18	13503	2959	16036	-2.3	0.23	1.0000 
	-6	2	19	20862	4103	18825	-1.59	-1.99	1.0000 
	-6	2	-19	16146	4000	14217	-1.71	2.02	1.0000 
	-2	-6	-19	20369	3110	16304	3.44	-2	1.0000 
	-6	-2	-19	16594	4049	12950	3.43	-2.01	1.0000 
	2	-6	-19	18377	3534	16358	-1.68	1.97	1.0000 
	6	2	19	18567	4268	14705	3.43	2.01	1.0000 
	6	-2	19	10804	3916	9222	-1.71	-2.02	1.0000 
	2	6	19	17062	3109	13353	3.44	2	1.0000 
	-2	6	19	16545	3412	14628	-1.68	-1.97	1.0000 
	-6	2	19	21508	3867	19440	-1.59	-1.99	1.0000 
	-6	-2	-19	22014	3398	17798	3.43	-2.01	1.0000 
	-6	2	-19	17311	3842	15314	-1.71	2.02	1.0000 
	-2	-6	-19	15773	2595	12212	3.44	-2	1.0000 
	2	-6	-19	14465	3039	12671	-1.68	1.97	1.0000 
	6	-2	-19	21281	3675	19224	-1.59	1.99	1.0000 
	2	-6	19	24892	4158	22618	-1.63	-2.05	1.0000 
	-2	-6	19	26736	3976	22086	3.42	1.93	1.0000 
	2	-6	-19	22043	3372	19833	-1.68	1.97	1.0000 
	6	-2	-19	18300	2562	16390	-1.59	1.99	1.0000 
	-2	-6	-19	14095	2212	10736	3.44	-2	1.0000 
	-6	2	20	17109	3911	17246	0.09	0.64	1.0000 
	-6	2	-20	14310	4042	14460	0.11	-0.73	1.0000 
	-2	-6	-20	13473	3348	14150	0.62	-0.45	1.0000 
	-6	-2	-20	9423	4359	9954	0.58	-0.5	1.0000 
	2	-6	-20	15214	3429	15351	0.1	-0.64	1.0000 
	6	2	20	12053	3736	12654	0.58	0.5	1.0000 
	6	-2	20	7665	4792	7772	0.11	0.73	1.0000 
	2	6	20	11542	3137	12169	0.62	0.45	1.0000 
	-2	6	20	12459	2956	12583	0.1	0.64	1.0000 
	-6	2	20	16691	3534	16826	0.09	0.64	1.0000 
	-6	-2	-20	15478	2714	16158	0.58	-0.5	1.0000 
	-6	2	-20	14037	3635	14185	0.11	-0.73	1.0000 
	-2	-6	-20	9260	2868	9822	0.62	-0.45	1.0000 
	2	-6	-20	13033	3095	13160	0.1	-0.64	1.0000 
	6	-2	-20	17735	4012	17874	0.09	-0.64	1.0000 
	2	-6	20	17534	3391	17700	0.11	0.74	1.0000 
	-2	-6	20	19166	3752	19908	0.57	0.49	1.0000 
	2	-6	-20	17961	3243	18111	0.1	-0.64	1.0000 
	-2	-6	-20	11669	2296	12299	0.62	-0.45	1.0000 
	2	-6	-20	8120	1710	8218	0.1	-0.64	1.0000 
	-6	2	-21	25097	6481	24891	0.15	0.03	1.0000 
	-2	-6	-21	23961	4465	23820	-0.09	-0.56	1.0000 
	2	-6	-21	22860	4125	22757	0.07	-0.03	1.0000 
	6	-2	21	13584	7973	13433	0.15	-0.03	1.0000 
	2	6	21	21801	4784	21666	-0.09	0.56	1.0000 
	-2	6	21	21132	4117	21033	0.07	0.03	1.0000 
	-6	-2	-21	36515	2615	36351	-0.08	-0.57	1.0000 
	-6	2	-21	29087	5718	28866	0.15	0.03	1.0000 
	-2	-6	-21	25247	3671	25102	-0.09	-0.56	1.0000 
	2	-6	-21	27275	4378	27163	0.07	-0.03	1.0000 
	6	-2	-21	35565	5193	35364	0.12	-0.06	1.0000 
	2	-6	21	40175	1807	39852	0.18	0.01	1.0000 
	-2	-6	21	37710	2520	37520	-0.1	0.42	1.0000 
	2	-6	-21	39668	3382	39533	0.07	-0.03	1.0000 
	-2	-6	-21	26517	3432	26369	-0.09	-0.56	1.0000 
	2	-6	-21	27412	3097	27299	0.07	-0.03	1.0000 
	2	-6	-22	2888	954	2808	0.17	-0.77	1.0000 
	-2	6	22	2988	992	2906	0.17	0.77	1.0000 
	-6	-2	-22	4156	1901	3910	0.43	-0.19	1.0000 
	-6	2	-22	3999	1353	3906	0.16	-0.66	1.0000 
	-2	-6	-22	4564	1301	4287	0.46	-0.13	1.0000 
	2	-6	-22	4552	1285	4454	0.17	-0.77	1.0000 
	6	-2	-22	2953	2181	2851	0.21	-0.85	1.0000 
	2	-6	22	6511	1827	6359	0.21	0.72	1.0000 
	-2	-6	22	7290	1277	6991	0.39	0.11	1.0000 
	2	-6	-22	5590	1515	5483	0.17	-0.77	1.0000 
	-2	-6	-22	4155	1118	3891	0.46	-0.13	1.0000 
	2	-6	-22	4137	1120	4043	0.17	-0.77	1.0000 
	-6	-2	-23	27207	5481	32082	-3.16	-0.47	1.0000 
	-6	2	-23	24810	6511	25002	0.16	-0.78	1.0000 
	-2	-6	-23	27645	5444	32502	-3.12	-0.47	1.0000 
	2	-6	-23	33393	5479	33608	0.15	-0.84	1.0000 
	6	-2	-23	35191	5723	35412	0.15	-0.77	1.0000 
	2	-6	23	34448	5536	34692	0.17	0.73	1.0000 
	-2	-6	23	29403	6857	34466	-3.16	0.45	1.0000 
	2	-6	-23	34175	6105	34393	0.15	-0.84	1.0000 
	-2	-6	-23	23293	5225	27767	-3.12	-0.47	1.0000 
	2	-6	-23	28784	5531	28983	0.15	-0.84	1.0000 
	-6	-2	-24	3888	1688	5242	-2.23	-0.07	1.0000 
	-6	2	-24	3458	1587	4909	-2.47	-1.36	1.0000 
	-2	-6	-24	4367	1678	5775	-2.19	0.05	1.0000 
	2	-6	-24	4348	1751	5988	-2.48	-1.56	1.0000 
	6	-2	-24	5939	1598	7819	-2.45	-1.69	1.0000 
	2	-6	24	6680	1814	8653	-2.44	1.5	1.0000 
	-2	-6	24	4050	1975	5458	-2.27	0.05	1.0000 
	2	-6	-24	4923	1244	6662	-2.48	-1.56	1.0000 
	-2	-6	-24	3438	1363	4698	-2.19	0.05	1.0000 
	2	-6	-24	3238	1274	4665	-2.48	-1.56	1.0000 
	-6	-2	-25	31363	5070	35519	2.54	0.73	1.0000 
	-6	2	-25	36467	5417	32837	2.14	0.7	1.0000 
	-2	-6	-25	31162	4255	35306	2.54	0.69	1.0000 
	2	-6	-25	40816	3855	36902	2.18	0.68	1.0000 
	6	-2	-25	47043	4410	42882	2.16	0.6	1.0000 
	2	-6	25	49628	5158	45402	2.13	-0.59	1.0000 
	2	-6	-25	34851	4014	31241	2.18	0.68	1.0000 
	-2	-6	-25	26488	4015	30318	2.54	0.69	1.0000 
	2	-6	-25	34801	4421	31194	2.18	0.68	1.0000 
	-6	-2	-26	801	447	723	0.3	0.33	1.0000 
	-6	2	-26	697	190	508	0.89	1.28	1.0000 
	-2	-6	-26	1054	365	967	0.29	0.39	1.0000 
	2	-6	-26	1551	429	1271	0.89	1.12	1.0000 
	6	-2	-26	1916	601	1603	0.88	1.04	1.0000 
	2	-6	-26	1191	297	944	0.89	1.12	1.0000 
	-2	-6	-26	1536	491	1432	0.29	0.39	1.0000 
	2	-6	-26	1503	397	1227	0.89	1.12	1.0000 
	-6	-2	-27	7055	2320	7024	0.07	0.41	1.0000 
	-6	2	-27	9446	2419	8544	-1.02	-1.21	1.0000 
	-2	-6	-27	7686	2148	7635	0.09	0.34	1.0000 
	2	-6	-27	8543	2165	7694	-1.01	-1.24	1.0000 
	6	-2	-27	10264	2563	9326	-1.01	-1.35	1.0000 
	-2	-6	27	8599	2299	8558	0.08	-0.45	1.0000 
	2	-6	-27	6374	1488	5639	-1.01	-1.24	1.0000 
	-2	-6	-27	6897	1831	6849	0.09	0.34	1.0000 
	2	-6	-27	7339	1802	6551	-1.01	-1.24	1.0000 
	6	-2	-27	11411	2597	10423	-1.01	-1.35	1.0000 
	-2	-6	-28	48	105	51	0.05	-0.01	1.0000 
	-6	-2	-28	170	233	177	0.07	-0.05	1.0000 
	-6	2	-28	270	184	341	0.32	0.64	1.0000 
	2	-6	-28	156	126	213	0.37	0.55	1.0000 
	6	-2	-28	103	169	150	0.37	0.58	1.0000 
	-2	-6	28	328	172	339	0.09	0.14	1.0000 
	-2	-6	-28	282	158	289	0.05	-0.01	1.0000 
	2	-6	-28	122	132	173	0.37	0.55	1.0000 
	6	-2	-28	665	328	785	0.37	0.58	1.0000 
	-6	2	-29	683	226	472	1.03	0.29	1.0000 
	-2	-6	-29	743	221	467	-1.24	-0.24	1.0000 
	-6	-2	-29	615	199	366	-1.25	-0.17	1.0000 
	2	-6	-29	463	154	292	1.03	0.28	1.0000 
	6	-2	-29	646	238	431	1.08	0.29	1.0000 
	-2	-6	29	726	186	448	-1.27	0.19	1.0000 
	-2	-6	-29	417	171	218	-1.24	-0.24	1.0000 
	2	-6	-29	709	187	493	1.03	0.28	1.0000 
	6	-2	-29	1013	352	740	1.08	0.29	1.0000 
	-6	2	-30	229	199	203	-0.15	0.42	1.0000 
	-2	-6	-30	384	223	424	0.22	-0.03	1.0000 
	-6	-2	-30	151	227	176	0.22	-0.02	1.0000 
	2	-6	-30	319	162	298	-0.09	0.4	1.0000 
	6	-2	-30	404	205	381	-0.08	0.42	1.0000 
	-2	-6	30	132	176	158	0.23	0.06	1.0000 
	-2	-6	-30	126	101	150	0.22	-0.03	1.0000 
	2	-6	-30	248	116	229	-0.09	0.4	1.0000 
	6	-2	-30	240	181	221	-0.08	0.42	1.0000 
	-6	2	-31	136	154	246	-0.7	1.15	1.0000 
	-2	-6	-31	56	137	162	1.06	-0.76	1.0000 
	-6	-2	-31	114	203	258	1.07	-0.78	1.0000 
	2	-6	-31	124	123	225	-0.69	1.1	1.0000 
	6	-2	-31	103	153	198	-0.69	1.2	1.0000 
	-2	-6	31	47	111	148	1.06	0.79	1.0000 
	-2	-6	-31	35	207	-21	1.06	-0.76	1.0000 
	2	-6	-31	53	114	116	-0.69	1.1	1.0000 
	6	-2	-31	97	185	189	-0.69	1.2	1.0000 
	-6	2	-32	369	200	377	0.31	1.44	1.0000 
	-2	-6	-32	380	190	328	0.38	0.38	1.0000 
	-6	-2	-32	582	268	511	0.41	0.37	1.0000 
	2	-6	-32	753	349	780	0.36	1.49	1.0000 
	6	-2	-32	1055	336	1090	0.39	1.5	1.0000 
	-2	-6	-32	486	233	427	0.38	0.38	1.0000 
	2	-6	-32	438	208	447	0.36	1.49	1.0000 
	6	-2	-32	603	306	617	0.39	1.5	1.0000 
	-6	2	-33	2147	729	1889	-0.63	0.07	1.0000 
	-2	-6	-33	3527	755	2086	3.03	0.29	1.0000 
	-6	-2	-33	3951	915	2408	3.04	0.32	1.0000 
	2	-6	-33	2166	712	1918	-0.61	0.07	1.0000 
	6	-2	-33	2813	918	2515	-0.64	0.07	1.0000 
	2	-6	-33	1417	634	1218	-0.61	0.07	1.0000 
	6	-2	-33	2281	691	2014	-0.64	0.07	1.0000 
	-3	-6	0	6050	880	15362	10.22	-0.12	1.0000 
	-6	-3	0	6403	1225	15931	10.23	-0.18	1.0000 
	-6	3	0	9776	1185	15867	6	0.1	1.0000 
	-3	-6	0	6304	790	15765	10.22	-0.12	1.0000 
	-6	3	0	10790	2247	17152	6	0.1	1.0000 
	-6	-3	0	5935	1185	15188	10.23	-0.18	1.0000 
	-6	3	0	10138	2351	16327	6	0.1	1.0000 
	-3	-6	0	6092	916	15430	10.22	-0.12	1.0000 
	-6	-3	0	5992	1193	15279	10.23	-0.18	1.0000 
	-3	-6	1	105	91	244	-5.68	-0.46	1.0000 
	-6	-3	1	18	146	487	-5.69	-0.6	1.0000 
	-6	3	-1	13	177	229	4.04	-0.39	1.0000 
	-3	-6	-1	102	90	257	-5.75	0.33	1.0000 
	-6	3	1	28	154	186	4.03	0.74	1.0000 
	-6	-3	-1	29	225	435	-5.74	0.2	1.0000 
	-3	-6	-1	169	84	171	-5.75	0.33	1.0000 
	-6	3	1	20	158	210	4.03	0.74	1.0000 
	-6	-3	1	45	258	374	-5.69	-0.6	1.0000 
	-6	-3	-1	93	160	270	-5.74	0.2	1.0000 
	-3	-6	-1	102	81	256	-5.75	0.33	1.0000 
	-3	-6	1	68	83	312	-5.68	-0.46	1.0000 
	-6	3	1	101	233	74	4.03	0.74	1.0000 
	-6	-3	-1	94	166	268	-5.74	0.2	1.0000 
	-6	-3	1	122	206	223	-5.69	-0.6	1.0000 
	-6	3	-1	5	214	389	4.04	-0.39	1.0000 
	-3	-6	2	1070	859	2358	-3.36	-1.4	1.0000 
	-3	-6	-2	1241	953	2593	-3.29	1.6	1.0000 
	-6	-3	2	2188	1364	3917	-3.34	-1.42	1.0000 
	-6	-3	2	1954	1241	3601	-3.34	-1.42	1.0000 
	-6	3	2	3086	1572	4487	-2.53	-0.11	1.0000 
	-3	-6	-2	771	994	1882	-3.29	1.6	1.0000 
	-3	-6	2	1758	976	3343	-3.36	-1.4	1.0000 
	-6	3	2	2626	1530	3928	-2.53	-0.11	1.0000 
	-3	-6	-2	1582	948	3080	-3.29	1.6	1.0000 
	-6	-3	2	2180	1596	3906	-3.34	-1.42	1.0000 
	-6	-3	-2	2222	1325	3965	-3.31	1.59	1.0000 
	-3	-6	3	12797	1072	18946	5.45	-0.6	1.0000 
	-6	3	3	14662	1850	19387	-4.04	-0.52	1.0000 
	-3	-6	-3	12684	991	18749	5.4	0.66	1.0000 
	-6	-3	3	12730	1401	18814	5.42	-0.87	1.0000 
	-3	-6	-3	11812	946	17685	5.4	0.66	1.0000 
	-6	-3	-3	11112	1279	16871	5.44	0.38	1.0000 
	-3	-6	-3	11252	1304	16997	5.4	0.66	1.0000 
	-3	-6	-4	282	430	955	-2.69	-1.74	1.0000 
	-3	-6	-4	231	481	859	-2.69	-1.74	1.0000 
	6	3	4	1157	910	2319	-2.65	1.77	1.0000 
	-3	-6	-4	320	496	1026	-2.69	-1.74	1.0000 
	-3	-6	-5	55524	2461	63277	-3.54	-0.33	1.0000 
	-3	-6	-5	53188	2374	60781	-3.54	-0.33	1.0000 
	3	-6	-5	57528	2170	60620	1.39	0.44	1.0000 
	3	6	5	56153	2425	63948	-3.54	0.33	1.0000 
	-3	6	6	222	999	1145	4.23	0.65	1.0000 
	-3	-6	-6	2197	2218	5215	5.61	-0.85	1.0000 
	3	-6	-6	3025	1219	5492	4.23	-0.65	1.0000 
	3	6	6	3306	1018	6867	5.61	0.85	1.0000 
	-3	6	6	962	976	2508	4.23	0.65	1.0000 
	-3	-6	-7	72384	4378	86752	5.66	0.47	1.0000 
	-6	-3	-7	67974	4493	81982	5.69	0.53	1.0000 
	3	-6	-7	90134	4349	88260	0.68	0.7	1.0000 
	3	6	7	69185	4160	83246	5.66	-0.47	1.0000 
	6	3	7	65567	4257	79336	5.69	-0.53	1.0000 
	-3	6	8	885	868	2587	-4.64	-1.18	1.0000 
	-6	3	-8	3433	1920	6383	-4.63	1.4	1.0000 
	-6	3	-8	2736	2166	5416	-4.63	1.4	1.0000 
	-3	-6	-8	1855	1344	4284	-4.95	-0.08	1.0000 
	-6	-3	-8	2803	3028	5697	-4.99	-0.15	1.0000 
	3	-6	-8	725	1832	2306	-4.64	1.18	1.0000 
	6	-3	8	2675	1810	5329	-4.63	-1.4	1.0000 
	3	6	8	1445	1589	3647	-4.95	0.08	1.0000 
	6	3	8	2935	2545	5885	-4.99	0.15	1.0000 
	-3	6	8	649	1082	2167	-4.64	-1.18	1.0000 
	-6	3	-9	88754	5077	94242	2	-0.32	1.0000 
	-6	3	-9	92741	5246	98349	2	-0.32	1.0000 
	-3	-6	-9	102302	5264	104492	-0.77	0.46	1.0000 
	-6	-3	-9	95913	5273	98029	-0.77	0.5	1.0000 
	3	-6	-9	96752	5077	102446	1.98	-0.45	1.0000 
	6	-3	9	90307	4953	95842	2	0.32	1.0000 
	3	6	9	98036	5004	100180	-0.77	-0.46	1.0000 
	6	3	9	91132	4926	93195	-0.77	-0.5	1.0000 
	-3	6	10	15264	2662	18794	3	-0.1	1.0000 
	-3	-6	-10	31383	2171	33143	1.04	-1.36	1.0000 
	-6	-3	-10	30741	3439	32509	1.04	-1.53	1.0000 
	-6	3	-10	27646	4739	32381	3.03	0.15	1.0000 
	3	-6	-10	25300	1891	29791	3	0.1	1.0000 
	6	-3	10	28938	2194	33778	3.03	-0.15	1.0000 
	6	3	10	28331	6406	30028	1.04	1.53	1.0000 
	3	6	10	30362	2010	32092	1.04	1.36	1.0000 
	-3	6	11	29134	2758	26246	1.92	0.15	1.0000 
	-6	-3	-11	37274	2396	34329	-1.73	0.11	1.0000 
	-6	3	-11	47852	6277	44037	1.96	-0.25	1.0000 
	-3	-6	-11	33603	2021	30813	-1.73	0.11	1.0000 
	3	-6	-11	42959	2423	39436	1.92	-0.15	1.0000 
	6	-3	11	37686	4758	34309	1.96	0.25	1.0000 
	6	3	11	34950	2191	32100	-1.73	-0.11	1.0000 
	3	6	11	35654	3673	32778	-1.73	-0.11	1.0000 
	-3	6	11	22403	4827	19880	1.92	0.15	1.0000 
	-3	6	12	16610	1983	17205	-0.52	0.91	1.0000 
	-6	-3	12	31415	2526	26219	3.4	-0.09	1.0000 
	-6	3	-12	22977	2396	23720	-0.55	-1.18	1.0000 
	-3	-6	-12	27469	2528	22526	3.48	0.41	1.0000 
	3	-6	-12	22536	2433	23230	-0.52	-0.91	1.0000 
	6	-3	12	20707	2048	21411	-0.55	1.18	1.0000 
	3	6	12	25900	2718	21107	3.48	-0.41	1.0000 
	-3	6	12	12556	3373	13071	-0.52	0.91	1.0000 
	-3	6	13	4493	1657	3483	-1.73	-1.85	1.0000 
	-6	-3	13	10892	1816	9717	1.35	1.12	1.0000 
	-6	3	-13	9088	2074	7667	-1.71	1.78	1.0000 
	-3	-6	-13	7152	1308	6174	1.38	-1.01	1.0000 
	3	-6	-13	6974	1507	5717	-1.73	1.85	1.0000 
	6	-3	13	5860	1733	4719	-1.71	-1.78	1.0000 
	3	6	13	8342	1555	7284	1.38	1.01	1.0000 
	-3	6	13	4857	1283	3807	-1.73	-1.85	1.0000 
	-6	-3	13	9126	1605	8051	1.35	1.12	1.0000 
	-3	-6	13	5837	708	4994	1.34	1.24	1.0000 
	-3	6	14	4984	2499	5226	0.41	-1.62	1.0000 
	-6	-3	14	13998	3081	13659	-0.31	-1.1	1.0000 
	-6	-3	-14	11143	2599	10920	-0.22	1.31	1.0000 
	-6	3	-14	10849	2923	11242	0.43	1.49	1.0000 
	-3	-6	-14	8608	2757	8347	-0.29	1.21	1.0000 
	3	-6	-14	8776	2412	9114	0.41	1.62	1.0000 
	6	-3	14	6249	3275	6537	0.43	-1.49	1.0000 
	3	6	14	12070	2684	11766	-0.29	-1.21	1.0000 
	6	3	14	9820	3527	9608	-0.22	-1.31	1.0000 
	-3	6	14	6987	2016	7283	0.41	-1.62	1.0000 
	-6	-3	14	13581	2592	13247	-0.31	-1.1	1.0000 
	-6	-3	-14	9659	1999	9449	-0.22	1.31	1.0000 
	-3	-6	14	10710	1991	10468	-0.24	-1.2	1.0000 
	3	-6	-14	11547	1756	11942	0.41	1.62	1.0000 
	-3	6	15	167	101	70	2.98	-1.4	1.0000 
	-6	-3	15	398	142	344	-0.36	0.86	1.0000 
	-6	-3	-15	310	190	266	-0.31	-0.79	1.0000 
	-6	3	-15	184	186	128	2.95	1.38	1.0000 
	-3	-6	-15	18	130	-8	-0.31	-0.9	1.0000 
	3	-6	-15	168	125	75	2.98	1.4	1.0000 
	6	-3	15	184	177	127	2.95	-1.38	1.0000 
	3	6	15	123	99	91	-0.31	0.9	1.0000 
	6	3	15	171	234	135	-0.31	0.79	1.0000 
	-3	6	15	176	93	111	2.98	-1.4	1.0000 
	-6	-3	15	415	155	360	-0.36	0.86	1.0000 
	-6	-3	-15	150	123	116	-0.31	-0.79	1.0000 
	6	-3	-15	263	62	272	2.94	1.29	1.0000 
	6	3	-15	357	111	305	-0.36	-0.86	1.0000 
	3	-6	15	259	126	260	2.93	-1.27	1.0000 
	-3	-6	15	275	138	227	-0.35	0.77	1.0000 
	3	-6	-15	265	103	303	2.98	1.4	1.0000 
	-3	6	16	4504	1365	2950	2.91	-0.96	1.0000 
	-6	-3	16	12384	1539	9172	3.57	-1.2	1.0000 
	-6	-3	-16	9358	1601	6574	3.6	1.21	1.0000 
	-6	3	-16	8944	1539	6695	2.91	0.97	1.0000 
	-3	-6	-16	9455	1271	6670	3.57	1.17	1.0000 
	3	-6	-16	9622	1391	7288	2.91	0.96	1.0000 
	6	-3	16	5732	1983	3958	2.91	-0.97	1.0000 
	3	6	16	8959	1548	6253	3.57	-1.17	1.0000 
	6	3	16	8524	1829	5876	3.6	-1.21	1.0000 
	-3	6	16	8067	1206	5941	2.91	-0.96	1.0000 
	-6	-3	16	11306	1332	8245	3.57	-1.2	1.0000 
	-6	3	-16	7125	1147	5132	2.91	0.97	1.0000 
	-6	-3	-16	9091	1341	6350	3.6	1.21	1.0000 
	6	3	-16	10301	1042	7388	3.57	1.2	1.0000 
	3	-6	16	9955	1089	7521	2.99	-1.03	1.0000 
	-6	-3	16	7452	715	5004	3.57	-1.2	1.0000 
	-3	-6	16	9225	1100	6463	3.6	-1.24	1.0000 
	3	-6	-16	9897	1039	7528	2.91	0.96	1.0000 
	6	-3	-16	9626	1052	7248	2.97	1	1.0000 
	-3	6	17	47	202	94	-0.72	0.67	1.0000 
	-6	-3	17	255	200	409	0.95	0.17	1.0000 
	-6	-3	-17	279	273	444	0.98	-0.14	1.0000 
	-6	3	-17	251	202	365	-0.74	-0.69	1.0000 
	-3	-6	-17	42	136	114	0.95	-0.17	1.0000 
	3	-6	-17	85	155	149	-0.72	-0.67	1.0000 
	6	-3	17	121	209	200	-0.74	0.69	1.0000 
	3	6	17	2	136	29	0.95	0.17	1.0000 
	6	3	17	186	241	323	0.98	0.14	1.0000 
	-3	6	17	192	133	289	-0.72	0.67	1.0000 
	-6	-3	17	467	261	669	0.95	0.17	1.0000 
	-6	3	-17	137	76	221	-0.74	-0.69	1.0000 
	-3	-6	-17	102	87	204	0.95	-0.17	1.0000 
	-6	-3	-17	35	132	104	0.98	-0.14	1.0000 
	6	3	-17	253	96	406	0.95	-0.17	1.0000 
	-6	-3	17	152	98	274	0.95	0.17	1.0000 
	-3	-6	17	188	101	325	0.97	0.13	1.0000 
	6	-3	-17	423	136	569	-0.73	-0.72	1.0000 
	-3	-6	-17	71	57	159	0.95	-0.17	1.0000 
	-3	6	18	365	179	216	-1.92	1.49	1.0000 
	-6	-3	18	830	251	945	0.3	-1.52	1.0000 
	-6	-3	-18	519	208	597	0.33	1.32	1.0000 
	-6	3	-18	705	158	554	-1.89	-1.56	1.0000 
	-3	-6	-18	494	160	579	0.35	1.45	1.0000 
	3	-6	-18	945	286	770	-1.92	-1.49	1.0000 
	6	-3	18	461	159	317	-1.89	1.56	1.0000 
	3	6	18	404	183	477	0.35	-1.45	1.0000 
	6	3	18	750	266	850	0.33	-1.32	1.0000 
	-3	6	18	749	150	581	-1.92	1.49	1.0000 
	-6	-3	18	745	224	851	0.3	-1.52	1.0000 
	-6	3	-18	679	160	529	-1.89	-1.56	1.0000 
	-3	-6	-18	423	108	499	0.35	1.45	1.0000 
	-6	-3	-18	592	188	677	0.33	1.32	1.0000 
	3	-6	-18	685	136	520	-1.92	-1.49	1.0000 
	6	3	-18	780	190	890	0.3	1.52	1.0000 
	-3	-6	18	749	183	841	0.29	-1.36	1.0000 
	-6	-3	18	489	113	567	0.3	-1.52	1.0000 
	6	-3	-18	989	163	803	-1.91	-1.45	1.0000 
	-3	-6	-18	363	104	430	0.35	1.45	1.0000 
	-3	6	19	190	699	808	3.23	0.29	1.0000 
	-6	-3	19	3244	647	3279	-0.1	-0.55	1.0000 
	-6	-3	-19	1883	767	1910	-0.11	0.76	1.0000 
	-6	3	-19	1045	590	2219	3.25	-0.36	1.0000 
	-3	-6	-19	2181	648	2216	-0.12	0.73	1.0000 
	3	-6	-19	1267	546	2523	3.23	-0.29	1.0000 
	6	-3	19	288	660	1008	3.25	0.36	1.0000 
	3	6	19	2004	577	2038	-0.12	-0.73	1.0000 
	6	3	19	2061	832	2089	-0.11	-0.76	1.0000 
	-3	6	19	927	496	2033	3.23	0.29	1.0000 
	-6	-3	19	3256	711	3291	-0.1	-0.55	1.0000 
	-6	3	-19	912	571	2022	3.25	-0.36	1.0000 
	-3	-6	-19	2229	556	2265	-0.12	0.73	1.0000 
	-6	-3	-19	2130	842	2159	-0.11	0.76	1.0000 
	3	-6	-19	912	486	2011	3.23	-0.29	1.0000 
	6	3	-19	2959	613	2992	-0.1	0.55	1.0000 
	-3	-6	19	2874	587	2896	-0.08	-0.59	1.0000 
	-6	-3	19	2024	400	2050	-0.1	-0.55	1.0000 
	3	-6	-19	1306	475	2579	3.23	-0.29	1.0000 
	6	-3	-19	1292	449	2570	3.25	-0.35	1.0000 
	-3	-6	-19	1718	367	1748	-0.12	0.73	1.0000 
	3	-6	-19	465	311	1310	3.23	-0.29	1.0000 
	-3	6	20	9	106	-1	0.68	0.01	1.0000 
	-6	-3	20	80	90	64	-3.1	-0.71	1.0000 
	-6	3	-20	10	170	-11	0.68	-0.05	1.0000 
	-3	-6	-20	67	131	170	-3.08	0.7	1.0000 
	3	-6	-20	87	181	152	0.68	-0.01	1.0000 
	6	-3	20	10	100	-8	0.68	0.05	1.0000 
	3	6	20	84	101	56	-3.08	-0.7	1.0000 
	-3	6	20	53	126	105	0.68	0.01	1.0000 
	-6	-3	20	66	208	167	-3.1	-0.71	1.0000 
	-6	3	-20	5	76	26	0.68	-0.05	1.0000 
	-3	-6	-20	84	50	55	-3.08	0.7	1.0000 
	-6	-3	-20	203	251	-45	-3.1	0.57	1.0000 
	3	-6	-20	11	59	39	0.68	-0.01	1.0000 
	6	3	-20	65	129	152	-3.1	0.71	1.0000 
	6	-3	-20	273	132	378	0.67	-0.12	1.0000 
	3	-6	20	5	102	1	0.68	0.16	1.0000 
	-6	-3	20	87	72	52	-3.1	-0.71	1.0000 
	-3	-6	20	78	132	272	-3.12	-0.56	1.0000 
	3	-6	-20	110	144	182	0.68	-0.01	1.0000 
	6	-3	-20	58	165	111	0.67	-0.12	1.0000 
	-3	-6	-20	66	91	116	-3.08	0.7	1.0000 
	3	-6	-20	53	92	105	0.68	-0.01	1.0000 
	-6	3	-21	4305	1693	5187	-1.46	-0.53	1.0000 
	-3	-6	-21	6945	1614	5551	-1.93	-0.47	1.0000 
	-6	-3	-21	6706	1985	5357	-1.91	-0.41	1.0000 
	3	-6	-21	4759	1728	5683	-1.45	-0.55	1.0000 
	6	3	-21	9043	862	7471	-1.89	-0.52	1.0000 
	6	-3	-21	5637	1095	6677	-1.5	-0.54	1.0000 
	3	-6	21	7549	1160	8762	-1.52	0.52	1.0000 
	-6	-3	21	6155	1334	4871	-1.89	0.52	1.0000 
	-3	-6	21	9420	991	7835	-1.87	0.47	1.0000 
	3	-6	-21	6244	807	7297	-1.45	-0.55	1.0000 
	6	-3	-21	4552	1480	5490	-1.5	-0.54	1.0000 
	-3	-6	-21	6561	1470	5208	-1.93	-0.47	1.0000 
	3	-6	-21	4306	1508	5186	-1.45	-0.55	1.0000 
	-6	3	-22	200	118	164	0.34	0.97	1.0000 
	-3	-6	-22	332	149	273	0.43	0.81	1.0000 
	-6	-3	-22	286	149	237	0.39	0.86	1.0000 
	3	-6	-22	287	113	245	0.36	0.98	1.0000 
	6	3	-22	437	189	370	0.42	0.72	1.0000 
	6	-3	-22	214	161	175	0.37	1.01	1.0000 
	-6	-3	22	247	129	194	0.42	-0.72	1.0000 
	-3	-6	22	514	170	450	0.39	-0.77	1.0000 
	3	-6	-22	779	266	723	0.36	0.98	1.0000 
	6	-3	-22	250	98	209	0.37	1.01	1.0000 
	-3	-6	-22	883	254	794	0.43	0.81	1.0000 
	3	-6	-22	442	157	395	0.36	0.98	1.0000 
	-6	3	-23	3626	1600	4392	1.4	0.82	1.0000 
	-3	-6	-23	7202	1846	5544	2.28	0.51	1.0000 
	-6	-3	-23	7205	2152	5549	2.28	0.5	1.0000 
	3	-6	-23	5132	1931	6043	1.41	0.78	1.0000 
	6	-3	-23	5981	1395	6969	1.42	0.85	1.0000 
	6	3	-23	9912	1643	7980	2.24	0.45	1.0000 
	-6	-3	23	5548	1181	4128	2.24	-0.45	1.0000 
	-3	-6	23	9535	1374	7632	2.26	-0.43	1.0000 
	3	-6	-23	6102	1265	7094	1.41	0.78	1.0000 
	-3	-6	-23	7186	1547	5530	2.28	0.51	1.0000 
	3	-6	-23	4610	1538	5475	1.41	0.78	1.0000 
	-6	3	-24	885	554	1388	-1.65	-0.48	1.0000 
	-3	-6	-24	1793	516	1615	0.48	-0.19	1.0000 
	-6	-3	-24	1997	711	1812	0.47	-0.03	1.0000 
	3	-6	-24	1435	640	2062	-1.66	-0.47	1.0000 
	6	3	-24	2796	783	2568	0.49	-0.18	1.0000 
	6	-3	-24	1868	858	2591	-1.69	-0.46	1.0000 
	-6	-3	24	1683	457	1507	0.49	0.18	1.0000 
	-3	-6	24	3119	860	2881	0.48	0.01	1.0000 
	3	-6	-24	1810	736	2508	-1.66	-0.47	1.0000 
	-3	-6	-24	2456	662	2247	0.48	-0.19	1.0000 
	3	-6	-24	1274	545	1868	-1.66	-0.47	1.0000 
	-6	3	-25	14918	2810	15672	-0.69	-0.26	1.0000 
	-3	-6	-25	16889	3203	15487	-1.19	-0.72	1.0000 
	-6	-3	-25	14796	3827	13471	-1.21	-0.68	1.0000 
	3	-6	-25	16149	2486	16940	-0.69	-0.26	1.0000 
	6	3	-25	23463	3079	21786	-1.21	-0.71	1.0000 
	6	-3	-25	19525	3366	20370	-0.68	-0.25	1.0000 
	-6	-3	25	10811	1766	9680	-1.21	0.71	1.0000 
	-3	-6	25	22333	2789	20675	-1.23	0.68	1.0000 
	3	-6	-25	16777	2568	17583	-0.69	-0.26	1.0000 
	-3	-6	-25	16684	2405	15291	-1.19	-0.72	1.0000 
	3	-6	-25	15644	2106	16422	-0.69	-0.26	1.0000 
	-6	3	-26	6087	1688	5968	0.16	-0.4	1.0000 
	-3	-6	-26	4475	1373	5063	-0.9	-1.98	1.0000 
	-6	-3	-26	4945	1809	5591	-0.93	-1.98	1.0000 
	3	-6	-26	6974	1900	6849	0.16	-0.25	1.0000 
	6	3	-26	7582	2173	8343	-0.87	-1.99	1.0000 
	6	-3	-26	7805	2125	7674	0.16	-0.33	1.0000 
	-3	-6	26	6671	1913	7412	-0.91	1.99	1.0000 
	3	-6	-26	5818	1503	5704	0.16	-0.25	1.0000 
	-3	-6	-26	4326	1294	4903	-0.9	-1.98	1.0000 
	3	-6	-26	4721	1269	4618	0.16	-0.25	1.0000 
	6	-3	-26	8597	2111	8460	0.16	-0.33	1.0000 
	6	3	-26	7291	1955	8036	-0.87	-1.99	1.0000 
	-6	3	-27	3348	1486	4005	1.21	0.06	1.0000 
	-3	-6	-27	4848	1194	4067	1.29	0.15	1.0000 
	-6	-3	-27	4468	1322	3731	1.27	0.11	1.0000 
	3	-6	-27	4152	1342	4881	1.21	0.01	1.0000 
	6	3	-27	7390	1707	6419	1.29	0.11	1.0000 
	6	-3	-27	5159	1630	5982	1.23	0.02	1.0000 
	-3	-6	27	6598	1513	5697	1.27	-0.09	1.0000 
	3	-6	-27	3035	1174	3663	1.21	0.01	1.0000 
	-3	-6	-27	4733	1410	3962	1.29	0.15	1.0000 
	3	-6	-27	3328	1481	3984	1.21	0.01	1.0000 
	6	-3	-27	6498	1913	7417	1.23	0.02	1.0000 
	6	3	-27	6556	1461	5643	1.29	0.11	1.0000 
	-6	3	-28	7602	2490	7940	0.4	-0.62	1.0000 
	-3	-6	-28	7847	2936	9480	1.94	1.41	1.0000 
	-6	-3	-28	6250	2946	7686	1.91	1.41	1.0000 
	3	-6	-28	9722	2967	10123	0.42	-0.52	1.0000 
	6	3	-28	9669	4879	11459	1.92	1.45	1.0000 
	6	-3	-28	10110	3187	10540	0.44	-0.62	1.0000 
	-3	-6	28	8736	2855	10409	1.89	-1.45	1.0000 
	3	-6	-28	5862	1841	6173	0.42	-0.52	1.0000 
	-3	-6	-28	5673	2078	7067	1.94	1.41	1.0000 
	3	-6	-28	7267	2257	7614	0.42	-0.52	1.0000 
	6	3	-28	8380	2720	10049	1.92	1.45	1.0000 
	6	-3	-28	11229	2159	11682	0.44	-0.62	1.0000 
	-6	3	-29	174	88	139	0.24	-0.8	1.0000 
	-3	-6	-29	295	160	292	-0.02	0	1.0000 
	-6	-3	-29	108	136	104	-0.04	0	1.0000 
	3	-6	-29	241	116	206	0.21	-0.87	1.0000 
	6	-3	-29	504	266	455	0.23	-0.86	1.0000 
	6	3	-29	537	290	535	-0.01	-0.02	1.0000 
	3	-6	-29	261	181	225	0.21	-0.87	1.0000 
	6	-3	-29	415	211	369	0.23	-0.86	1.0000 
	6	3	-29	375	239	374	-0.01	-0.02	1.0000 
	-6	3	-30	4027	1424	4427	-0.69	-0.27	1.0000 
	-3	-6	-30	6498	2001	6565	-0.1	-0.24	1.0000 
	-6	-3	-30	5465	2037	5551	-0.14	-0.3	1.0000 
	3	-6	-30	8930	2524	9506	-0.67	-0.23	1.0000 
	6	-3	-30	7412	2373	7948	-0.69	-0.28	1.0000 
	6	3	-30	7904	2367	7976	-0.1	-0.19	1.0000 
	3	-6	-30	5893	1865	6362	-0.67	-0.23	1.0000 
	6	3	-30	7114	2040	7182	-0.1	-0.19	1.0000 
	6	-3	-30	6904	2128	7422	-0.69	-0.28	1.0000 
	-6	3	-31	191	125	245	-0.38	-0.59	1.0000 
	-3	-6	-31	373	172	371	-0.04	-0.43	1.0000 
	-6	-3	-31	487	243	481	-0.05	-0.4	1.0000 
	3	-6	-31	455	267	545	-0.41	-0.59	1.0000 
	6	-3	-31	784	412	902	-0.41	-0.57	1.0000 
	6	3	-31	555	278	550	-0.05	-0.43	1.0000 
	3	-6	-31	225	167	288	-0.41	-0.59	1.0000 
	6	-3	-31	412	307	497	-0.41	-0.57	1.0000 
	6	3	-31	822	386	817	-0.05	-0.43	1.0000 
	-6	3	-32	1867	718	1754	-0.36	-1.02	1.0000 
	-3	-6	-32	4383	1445	3921	-0.81	-0.25	1.0000 
	-6	-3	-32	6071	2841	5522	-0.82	-0.28	1.0000 
	3	-6	-32	4892	1630	4710	-0.37	-0.97	1.0000 
	6	-3	-32	7116	1860	6901	-0.38	-1.01	1.0000 
	6	3	-32	6256	1699	5727	-0.77	-0.15	1.0000 
	3	-6	-32	3485	1187	3329	-0.37	-0.97	1.0000 
	6	3	-32	5728	1758	5222	-0.77	-0.15	1.0000 
	6	-3	-32	6104	1620	5903	-0.38	-1.01	1.0000 
	-6	-3	-33	4725	1603	4443	0.47	0.14	1.0000 
	-6	3	-33	1329	531	1282	-0.15	0.22	1.0000 
	-3	-6	-33	3515	1229	3287	0.44	0.13	1.0000 
	3	-6	-33	3551	1270	3477	-0.15	0.28	1.0000 
	6	-3	-33	5763	1607	5658	-0.16	0.18	1.0000 
	6	3	-33	5093	1671	4825	0.43	0.17	1.0000 
	3	-6	-33	2649	939	2585	-0.15	0.28	1.0000 
	6	3	-33	3576	1178	3352	0.43	0.17	1.0000 
	6	-3	-33	4907	1659	4810	-0.16	0.18	1.0000 
	-6	4	0	193553	9735	201629	2.02	-0.3	1.0000 
	-4	-6	0	200049	9314	200707	0.18	0.53	1.0000 
	-4	-6	0	196162	9126	196813	0.18	0.53	1.0000 
	-6	4	0	196651	9873	204791	2.02	-0.3	1.0000 
	-4	-6	0	193650	9029	194297	0.18	0.53	1.0000 
	-6	4	0	189899	9552	197899	2.02	-0.3	1.0000 
	-4	-6	1	3021	1239	5528	4.29	0.4	1.0000 
	-6	4	1	2666	2141	6585	-6.54	0.06	1.0000 
	-4	-6	-1	2300	1289	4651	4.39	1.08	1.0000 
	-4	-6	-1	1488	1453	3458	4.39	1.08	1.0000 
	-4	-6	1	2241	1333	4453	4.29	0.4	1.0000 
	-6	4	1	2408	2316	6176	-6.54	0.06	1.0000 
	-4	-6	1	4023	1530	6859	4.29	0.4	1.0000 
	-6	4	1	3061	2271	7198	-6.54	0.06	1.0000 
	-4	-6	-1	3165	1523	5853	4.39	1.08	1.0000 
	-4	-6	2	115823	5549	111555	1.36	1.37	1.0000 
	-4	-6	-2	116009	5438	111721	1.36	-1.75	1.0000 
	-6	-4	2	113603	5877	109527	1.32	1.07	1.0000 
	-6	-4	-2	116179	6044	111783	1.4	-2.01	1.0000 
	-6	-4	2	112376	5913	108322	1.32	1.07	1.0000 
	-6	4	-2	118819	5965	114080	1.52	-0.56	1.0000 
	-6	4	2	119862	5924	114805	1.6	1.16	1.0000 
	-4	-6	2	118403	5460	114088	1.36	1.37	1.0000 
	-4	-6	-2	116957	5470	112651	1.36	-1.75	1.0000 
	-4	-6	2	115854	5520	111585	1.36	1.37	1.0000 
	-4	-6	-2	115631	5416	111350	1.36	-1.75	1.0000 
	-6	-4	-2	114134	6006	109777	1.4	-2.01	1.0000 
	-6	-4	2	114148	5832	110062	1.32	1.07	1.0000 
	-4	-6	3	1025	551	2943	3.59	3.7	1.0000 
	-4	-6	-3	361	704	1653	3.51	-3.7	1.0000 
	-4	-6	-3	194	704	1245	3.51	-3.7	1.0000 
	-4	-6	3	1108	506	3085	3.59	3.7	1.0000 
	-4	-6	-3	489	641	1927	3.51	-3.7	1.0000 
	-4	-6	4	41551	2601	48261	3.46	0.99	1.0000 
	-6	4	-4	45973	2983	48126	1.14	1.36	1.0000 
	-6	-4	4	40491	3067	47140	3.47	0.97	1.0000 
	-4	-6	-4	38910	2889	45319	3.41	-1.11	1.0000 
	-6	-4	4	40847	3031	47525	3.47	0.97	1.0000 
	-4	-6	-4	37715	2474	44028	3.41	-1.11	1.0000 
	-4	-6	4	41594	2591	48307	3.46	0.99	1.0000 
	-6	-4	4	40733	3089	47401	3.47	0.97	1.0000 
	-4	-6	-4	39294	3001	45734	3.41	-1.11	1.0000 
	-6	4	-4	46164	2956	48322	1.14	1.36	1.0000 
	-4	-6	5	7033	1287	5192	2.78	-1.41	1.0000 
	-6	-4	-5	7746	1935	5730	2.8	0.69	1.0000 
	-4	-6	-5	5278	1411	3633	2.8	0.68	1.0000 
	-4	-6	-5	4674	1555	3134	2.8	0.68	1.0000 
	-4	-6	5	7584	1058	5669	2.78	-1.41	1.0000 
	-6	-4	5	9231	1737	7114	2.78	-1.42	1.0000 
	-4	-6	-5	4096	1847	2663	2.8	0.68	1.0000 
	-4	6	6	4254	1753	4121	0.24	-0.18	1.0000 
	-6	4	-6	8904	3182	8737	0.18	-0.33	1.0000 
	-4	-6	-6	7846	2536	8150	-0.32	0.8	1.0000 
	-6	-4	-6	7841	1008	8144	-0.31	0.83	1.0000 
	-4	-6	-6	4021	2197	4236	-0.32	0.8	1.0000 
	4	6	6	6187	2329	6455	-0.32	-0.8	1.0000 
	-4	6	6	5633	1220	5480	0.24	-0.18	1.0000 
	-6	-4	6	9429	968	9612	-0.19	-0.32	1.0000 
	-4	6	7	3832	2029	3422	0.63	2.28	1.0000 
	-6	-4	7	20217	1637	16088	-3.4	0	1.0000 
	-6	4	-7	15163	3953	14483	0.59	-2.27	1.0000 
	-6	4	-7	12431	4129	11806	0.59	-2.27	1.0000 
	-6	-4	-7	18327	3620	14342	-3.47	0.18	1.0000 
	-4	-6	-7	13946	3841	10454	-3.52	0.18	1.0000 
	6	4	7	17804	3055	13880	-3.47	-0.18	1.0000 
	4	6	7	16859	1730	12995	-3.52	-0.18	1.0000 
	-4	6	7	6241	1878	5744	0.63	2.28	1.0000 
	-6	-4	7	19212	1564	15193	-3.4	0	1.0000 
	-6	4	-7	16324	3724	15622	0.59	-2.27	1.0000 
	-4	6	8	9	202	313	-3.15	-0.8	1.0000 
	-4	-6	-8	44	245	228	-0.38	1.84	1.0000 
	4	-6	-8	2	235	261	-3.15	0.8	1.0000 
	6	4	8	237	391	560	-0.4	-1.79	1.0000 
	4	6	8	110	269	360	-0.38	-1.84	1.0000 
	-4	6	8	0	139	226	-3.15	-0.8	1.0000 
	-4	6	9	15248	4633	13153	-1.91	-2.29	1.0000 
	6	4	9	27433	3354	23752	2.81	3.58	1.0000 
	-4	6	9	21079	2945	18620	-1.91	-2.29	1.0000 
	-4	6	10	18126	4094	11099	-6.56	1.32	1.0000 
	-6	4	-10	33316	5785	23477	-6.56	-1.02	1.0000 
	-6	4	-10	33877	5540	23948	-6.56	-1.02	1.0000 
	4	-6	-10	28430	5146	19428	-6.56	-1.32	1.0000 
	-4	6	10	25537	2861	17047	-6.56	1.32	1.0000 
	-6	4	-10	30121	3176	20806	-6.56	-1.02	1.0000 
	-4	6	11	2998	1479	3789	-1.39	-1.49	1.0000 
	-6	4	11	9154	2424	10589	-1.45	-1.51	1.0000 
	-6	4	-11	3451	3963	4283	-1.38	1.29	1.0000 
	-6	4	-11	6154	1698	7259	-1.38	1.29	1.0000 
	-4	-6	-11	5639	1863	6777	1.59	0.24	1.0000 
	4	-6	-11	5304	1707	6353	-1.39	1.49	1.0000 
	4	6	11	3721	1914	4655	1.59	-0.24	1.0000 
	6	4	11	4501	2822	5523	1.59	-0.31	1.0000 
	-4	6	11	3479	1196	4330	-1.39	-1.49	1.0000 
	4	-6	-11	6645	877	7818	-1.39	1.49	1.0000 
	-4	6	12	49524	5697	44900	2.32	1.31	1.0000 
	-6	4	12	67342	6889	61931	2.32	1.3	1.0000 
	-6	4	-12	58771	6614	53659	2.35	-1.39	1.0000 
	-6	4	-12	57605	6165	52544	2.35	-1.39	1.0000 
	-4	-6	-12	65828	6903	62577	1.45	0.64	1.0000 
	4	-6	-12	68106	7464	62669	2.32	-1.31	1.0000 
	6	-4	12	59292	6463	54157	2.35	1.39	1.0000 
	4	6	12	65442	6845	62201	1.45	-0.64	1.0000 
	-4	6	12	48182	9015	43622	2.32	1.31	1.0000 
	4	-6	-12	65835	6439	60491	2.32	-1.31	1.0000 
	-4	6	13	25	247	270	0.55	4	1.0000 
	-6	4	-13	49	406	166	0.57	-4.07	1.0000 
	-6	4	-13	57	356	559	0.57	-4.07	1.0000 
	-4	-6	-13	378	340	979	-2.5	-0.79	1.0000 
	4	-6	-13	44	206	487	0.55	-4	1.0000 
	6	-4	13	30	540	413	0.57	4.07	1.0000 
	6	4	13	16	308	256	-2.55	0.79	1.0000 
	4	6	13	74	458	417	-2.5	0.79	1.0000 
	-4	6	13	39	269	459	0.55	4	1.0000 
	-6	4	13	556	706	1652	0.57	4	1.0000 
	-6	-4	-13	403	284	1032	-2.55	-0.79	1.0000 
	-6	-4	13	766	434	1563	-2.54	0.67	1.0000 
	4	-6	-13	778	501	2027	0.55	-4	1.0000 
	-4	6	14	67274	7620	70874	1.51	0.17	1.0000 
	-6	-4	14	101315	11607	108449	2.41	0.73	1.0000 
	-6	4	14	89777	8888	93646	1.42	0.01	1.0000 
	-4	-6	-14	87754	11362	94406	2.41	-0.74	1.0000 
	-6	4	-14	76731	9001	80710	1.56	-0.31	1.0000 
	4	-6	-14	86538	9300	90615	1.51	-0.17	1.0000 
	6	-4	14	84012	8256	88173	1.56	0.31	1.0000 
	4	6	14	88839	8976	95532	2.41	0.74	1.0000 
	-4	6	14	56142	11303	59435	1.51	0.17	1.0000 
	-6	4	14	91281	9038	95182	1.42	0.01	1.0000 
	-6	-4	14	87628	9704	94271	2.41	0.73	1.0000 
	-6	-4	-14	82722	8223	89151	2.4	-0.7	1.0000 
	6	-4	-14	80641	8333	84310	1.42	-0.01	1.0000 
	4	-6	-14	82368	7851	86347	1.51	-0.17	1.0000 
	-4	6	15	1966	846	1779	-0.49	-0.54	1.0000 
	-6	-4	15	5961	1285	5816	0.36	1.62	1.0000 
	-4	-6	-15	3732	698	3628	0.31	-1.57	1.0000 
	-6	4	-15	2892	783	2662	-0.5	0.58	1.0000 
	4	-6	-15	4114	824	3844	-0.49	0.54	1.0000 
	6	-4	15	1686	758	1510	-0.5	-0.58	1.0000 
	6	4	15	2219	971	2124	0.33	1.62	1.0000 
	4	6	15	3684	754	3580	0.31	1.57	1.0000 
	-4	6	15	3462	730	3214	-0.49	-0.54	1.0000 
	-6	-4	15	5849	929	5705	0.36	1.62	1.0000 
	-4	-6	-15	3165	763	3065	0.31	-1.57	1.0000 
	4	-6	-15	7910	1279	7536	-0.49	0.54	1.0000 
	-4	6	16	76673	11994	81828	-2.02	-0.13	1.0000 
	-6	-4	16	113149	17827	119516	-2.1	1.43	1.0000 
	-6	4	-16	105147	15986	111169	-2.02	0.18	1.0000 
	-4	-6	-16	80913	16307	86291	-2.1	-1.6	1.0000 
	4	-6	-16	87087	17533	92575	-2.02	0.13	1.0000 
	6	-4	16	101730	15387	107655	-2.02	-0.18	1.0000 
	4	6	16	91809	15115	97535	-2.1	1.6	1.0000 
	-4	6	16	68891	15307	73782	-2.02	-0.13	1.0000 
	-6	-4	16	105584	17078	111735	-2.1	1.43	1.0000 
	-4	-6	-16	90160	13542	95835	-2.1	-1.6	1.0000 
	6	4	-16	99824	14956	105806	-2.1	-1.43	1.0000 
	6	-4	-16	96761	14518	102777	-2.11	0.02	1.0000 
	-6	-4	16	75618	11411	80830	-2.1	1.43	1.0000 
	6	-4	-16	95835	14435	101822	-2.11	0.02	1.0000 
	-4	6	17	1346	886	1539	-0.54	-0.53	1.0000 
	-6	4	17	4394	1374	4744	-0.54	-0.68	1.0000 
	-6	-4	17	5404	1438	6219	1.11	-1.13	1.0000 
	-6	-4	-17	2583	926	3163	1.15	1.04	1.0000 
	-6	4	-17	2361	734	2608	-0.53	0.46	1.0000 
	-4	-6	-17	3201	1152	3857	1.16	1.16	1.0000 
	4	-6	-17	3854	1042	4179	-0.54	0.53	1.0000 
	6	-4	17	1165	1048	1339	-0.53	-0.46	1.0000 
	4	6	17	3039	1038	3678	1.16	-1.16	1.0000 
	6	4	17	1900	1108	2399	1.15	-1.04	1.0000 
	-4	6	17	2818	800	3096	-0.54	-0.53	1.0000 
	-6	-4	17	5211	1506	6012	1.11	-1.13	1.0000 
	-6	4	17	4966	1337	5338	-0.54	-0.68	1.0000 
	-6	4	-17	2229	823	2469	-0.53	0.46	1.0000 
	-4	-6	-17	2943	741	3572	1.16	1.16	1.0000 
	6	4	-17	5019	1278	5805	1.11	1.13	1.0000 
	6	-4	-17	5008	1389	5382	-0.54	0.68	1.0000 
	-4	-6	17	7924	2125	8896	1.11	-0.98	1.0000 
	-6	-4	17	4212	1604	4933	1.11	-1.13	1.0000 
	6	-4	-17	5287	2468	5671	-0.54	0.68	1.0000 
	-6	-4	18	47728	8739	50333	1.26	0.85	1.0000 
	-6	4	18	43307	12146	46746	1.82	-0.75	1.0000 
	-4	-6	-18	36860	10523	39153	1.26	-0.95	1.0000 
	4	6	18	34206	10178	36416	1.26	0.95	1.0000 
	6	4	18	50894	8388	53628	1.28	0.98	1.0000 
	-6	-4	18	50960	8946	53651	1.26	0.85	1.0000 
	-6	4	18	47924	10901	51539	1.82	-0.75	1.0000 
	-6	4	-18	46155	7413	49654	1.8	0.83	1.0000 
	-4	-6	-18	50652	8545	53337	1.26	-0.95	1.0000 
	4	-6	-18	42090	7847	45473	1.82	0.75	1.0000 
	6	4	-18	55186	8452	57986	1.26	-0.85	1.0000 
	6	-4	-18	50056	7945	53749	1.82	0.75	1.0000 
	-6	-4	18	42670	6846	45134	1.26	0.85	1.0000 
	-4	-6	18	52712	8149	55499	1.28	0.91	1.0000 
	6	-4	-18	58553	10240	62543	1.82	0.75	1.0000 
	-6	-4	19	2837	983	3267	-0.88	0.54	1.0000 
	-4	-6	-19	1992	920	2348	-0.87	-0.52	1.0000 
	4	6	19	1882	958	2228	-0.87	0.52	1.0000 
	-6	-4	19	3095	1025	3544	-0.88	0.54	1.0000 
	-6	4	-19	3995	789	2000	-4.09	-1.98	1.0000 
	-4	-6	-19	3037	1170	3475	-0.87	-0.52	1.0000 
	4	-6	-19	5651	1099	3232	-4.09	-2.06	1.0000 
	6	4	-19	4821	1480	5379	-0.88	-0.54	1.0000 
	6	-4	-19	8012	1483	5082	-4.09	-2.07	1.0000 
	-6	-4	19	4714	1449	5266	-0.88	0.54	1.0000 
	6	-4	-19	4936	1594	2688	-4.09	-2.07	1.0000 
	4	-6	-19	6624	1172	3985	-4.09	-2.06	1.0000 
	-6	4	-20	8784	2480	8555	0.29	0.32	1.0000 
	-4	-6	-20	17460	3191	15590	1.58	-0.99	1.0000 
	-6	-4	-20	16317	3309	14511	1.58	-0.91	1.0000 
	4	-6	-20	16627	2762	16258	0.34	0.37	1.0000 
	6	4	-20	21836	2195	19723	1.59	-1.01	1.0000 
	6	-4	-20	20207	2664	19757	0.38	0.47	1.0000 
	-6	-4	20	19781	1586	17772	1.59	1.01	1.0000 
	-4	-6	20	23565	2885	21372	1.59	0.93	1.0000 
	4	-6	-20	24291	2143	23845	0.34	0.37	1.0000 
	6	-4	-20	21994	1807	21524	0.38	0.47	1.0000 
	4	-6	-20	15475	1875	15119	0.34	0.37	1.0000 
	-6	4	-21	2597	1058	2446	0.33	-0.15	1.0000 
	-4	-6	-21	3981	1329	3781	-0.35	-0.09	1.0000 
	-6	-4	-21	3874	1531	3679	-0.35	-0.1	1.0000 
	6	-4	-21	5654	1768	5373	0.41	-0.25	1.0000 
	4	-6	-21	4534	1257	4304	0.37	-0.28	1.0000 
	6	4	-21	5318	1492	5084	-0.35	-0.17	1.0000 
	-6	-4	21	4835	1293	4612	-0.35	0.17	1.0000 
	-4	-6	21	6299	1920	6040	-0.36	0.18	1.0000 
	6	-4	-21	6261	1581	5965	0.41	-0.25	1.0000 
	4	-6	-21	7046	1279	6759	0.37	-0.28	1.0000 
	4	-6	-21	4105	1077	3886	0.37	-0.28	1.0000 
	-6	4	-22	1725	442	867	-2.72	-0.59	1.0000 
	-4	-6	-22	3087	593	1800	-2.9	0.17	1.0000 
	-6	-4	-22	3030	581	1757	-2.9	0.23	1.0000 
	4	-6	-22	2933	525	1770	-2.71	-0.48	1.0000 
	6	4	-22	3729	680	2290	-2.92	0.18	1.0000 
	-6	-4	22	3623	620	2207	-2.92	-0.18	1.0000 
	-4	-6	22	4323	781	2753	-2.93	-0.25	1.0000 
	6	-4	-22	3661	639	2348	-2.72	-0.55	1.0000 
	4	-6	-22	4411	813	2954	-2.71	-0.48	1.0000 
	4	-6	-22	2996	494	1819	-2.71	-0.48	1.0000 
	-6	4	-23	2188	912	1810	-1.03	-1.11	1.0000 
	-4	-6	-23	4120	1324	3603	0.89	0.91	1.0000 
	-6	-4	-23	3631	1335	3129	0.92	0.99	1.0000 
	4	-6	-23	4656	1294	4089	-1.07	-1.12	1.0000 
	6	4	-23	5587	1583	4970	0.91	0.93	1.0000 
	-6	-4	23	4330	1134	3787	0.91	-0.93	1.0000 
	-4	-6	23	6079	769	5412	0.94	-1	1.0000 
	6	-4	-23	5250	1453	4676	-1.04	-1.21	1.0000 
	4	-6	-23	6212	796	5559	-1.07	-1.12	1.0000 
	4	-6	-23	4687	1206	4118	-1.07	-1.12	1.0000 
	-6	4	-24	533	114	229	1.79	0.87	1.0000 
	-4	-6	-24	668	176	314	1.79	0.28	1.0000 
	-6	-4	-24	765	231	385	1.77	0.28	1.0000 
	4	-6	-24	982	201	559	1.78	0.97	1.0000 
	6	4	-24	723	129	348	1.82	0.41	1.0000 
	-6	-4	24	730	127	353	1.82	-0.41	1.0000 
	-4	-6	24	1048	221	589	1.79	-0.39	1.0000 
	4	-6	-24	1021	213	589	1.78	0.97	1.0000 
	6	-4	-24	965	198	552	1.73	0.84	1.0000 
	4	-6	-24	839	190	451	1.78	0.97	1.0000 
	-6	4	-25	2425	963	2096	0.77	0.14	1.0000 
	-4	-6	-25	7043	2237	7323	0.34	0.58	1.0000 
	-6	-4	-25	7244	2623	7501	0.31	0.58	1.0000 
	4	-6	-25	10343	2635	9676	0.75	0.14	1.0000 
	6	4	-25	9397	2506	9702	0.32	0.51	1.0000 
	-6	-4	25	6863	1859	7123	0.32	-0.51	1.0000 
	4	-6	-25	10278	2375	9613	0.75	0.14	1.0000 
	6	-4	-25	7208	1691	6652	0.75	0.12	1.0000 
	6	4	-25	8480	2156	8770	0.32	0.51	1.0000 
	4	-6	-25	9016	2168	8394	0.75	0.14	1.0000 
	-6	4	-26	5831	1939	6035	-0.33	-1.02	1.0000 
	-4	-6	-26	12562	2860	12334	0.44	2.23	1.0000 
	-6	-4	-26	10768	3545	10540	0.45	2.26	1.0000 
	4	-6	-26	13419	2981	13741	-0.33	-1.1	1.0000 
	6	4	-26	14080	2660	13849	0.44	2.26	1.0000 
	-6	-4	26	8225	2233	8024	0.44	-2.26	1.0000 
	4	-6	-26	10855	4656	11143	-0.33	-1.1	1.0000 
	4	-6	-26	11409	2362	11704	-0.33	-1.1	1.0000 
	6	4	-26	12774	2271	12549	0.44	2.26	1.0000 
	-6	4	-27	769	402	954	0.77	1.49	1.0000 
	-4	-6	-27	1446	662	1572	-0.33	-0.46	1.0000 
	-6	-4	-27	759	335	851	-0.33	-0.52	1.0000 
	4	-6	-27	1849	691	2157	0.78	1.44	1.0000 
	6	4	-27	1728	668	1872	-0.35	-0.41	1.0000 
	-6	-4	27	1225	523	1346	-0.35	0.41	1.0000 
	4	-6	-27	1315	626	1570	0.78	1.44	1.0000 
	4	-6	-27	1228	596	1473	0.78	1.44	1.0000 
	6	4	-27	1326	542	1452	-0.35	-0.41	1.0000 
	-6	4	-28	10545	3287	9942	-0.63	0.78	1.0000 
	-4	-6	-28	28964	6763	26690	-1.55	-0.68	1.0000 
	-6	-4	-28	30848	7294	28530	-1.53	-0.64	1.0000 
	4	-6	-28	27064	7311	26060	-0.66	0.73	1.0000 
	6	4	-28	26379	6333	24172	-1.59	-0.75	1.0000 
	-6	-4	28	16689	3895	14941	-1.59	0.75	1.0000 
	4	-6	-28	15730	4376	14964	-0.66	0.73	1.0000 
	4	-6	-28	19858	5298	18998	-0.66	0.73	1.0000 
	6	4	-28	27207	6183	24966	-1.59	-0.75	1.0000 
	-6	4	-29	94	100	-112	-2.05	0.63	1.0000 
	-4	-6	-29	129	254	-43	2.51	-0.1	1.0000 
	-6	-4	-29	7	125	78	2.52	-0.06	1.0000 
	6	4	-29	1	80	120	2.5	-0.09	1.0000 
	4	-6	-29	189	265	537	-2.02	0.63	1.0000 
	-6	-4	29	1	88	133	2.5	0.09	1.0000 
	4	-6	-29	899	689	1556	-2.02	0.63	1.0000 
	6	4	-29	471	472	1083	2.5	-0.09	1.0000 
	-6	-4	-30	25109	7732	24978	0.1	0.24	1.0000 
	-4	-6	-30	33532	9334	33432	0.07	0.19	1.0000 
	6	4	-30	28963	8726	28943	0.02	0.19	1.0000 
	4	-6	-30	36390	10253	36733	-0.21	-0.17	1.0000 
	-4	-6	30	27027	7654	26965	0.05	-0.21	1.0000 
	4	-6	-30	28006	7996	28307	-0.21	-0.17	1.0000 
	6	4	-30	25173	7032	25154	0.02	0.19	1.0000 
	-6	-4	-31	1037	458	1029	-0.05	0.49	1.0000 
	-4	-6	-31	1298	472	1286	-0.06	0.47	1.0000 
	4	-6	-31	1292	519	1416	-0.32	0.78	1.0000 
	6	-4	-31	2119	803	2272	-0.32	0.65	1.0000 
	6	4	-31	1347	509	1332	-0.07	0.49	1.0000 
	-4	-6	31	1151	538	1140	-0.06	-0.51	1.0000 
	4	-6	-31	493	243	566	-0.32	0.78	1.0000 
	6	4	-31	669	271	657	-0.07	0.49	1.0000 
	6	-4	-31	1691	661	1827	-0.32	0.65	1.0000 
	-6	-4	-32	32044	8242	30118	-1.22	-0.08	1.0000 
	-4	-6	-32	26345	6676	24619	-1.2	-0.05	1.0000 
	4	-6	-32	30130	7696	28837	-0.84	-0.15	1.0000 
	6	4	-32	25367	6647	23629	-1.23	-0.06	1.0000 
	-4	-6	32	14725	4199	13403	-1.24	0.09	1.0000 
	6	4	-32	15170	4052	13833	-1.23	-0.06	1.0000 
	4	-6	-32	18894	5155	17873	-0.84	-0.15	1.0000 
	-6	5	0	292858	12607	264889	-5.86	-0.14	1.0000 
	-5	-6	0	306137	12247	266249	-8.24	0.64	1.0000 
	-5	-6	0	302600	12082	262951	-8.24	0.64	1.0000 
	-5	-6	0	298077	11917	258736	-8.24	0.64	1.0000 
	-5	-6	-1	5464	2977	8833	3.69	-2.88	1.0000 
	-5	-6	1	5848	2009	8775	3.8	0.34	1.0000 
	-5	-6	-1	4885	2901	8090	3.69	-2.88	1.0000 
	-5	-6	1	4795	2166	7474	3.8	0.34	1.0000 
	-5	-6	1	8254	1803	11676	3.8	0.34	1.0000 
	-5	-6	-1	7766	2757	11714	3.69	-2.88	1.0000 
	-5	-6	2	143600	6660	137088	1.88	1.37	1.0000 
	-6	5	-2	140045	7157	136247	1.09	-1.12	1.0000 
	-5	-6	-2	142810	6990	137175	1.64	-0.93	1.0000 
	-6	-5	2	141421	7202	135541	1.71	1.24	1.0000 
	-5	-6	2	146599	6770	140019	1.88	1.37	1.0000 
	-6	-5	2	139814	6633	133967	1.71	1.24	1.0000 
	-6	5	-2	141790	7532	137968	1.09	-1.12	1.0000 
	-5	-6	-2	144894	6977	139217	1.64	-0.93	1.0000 
	-6	-5	2	140869	7120	135000	1.71	1.24	1.0000 
	-5	-6	2	144471	6716	137939	1.88	1.37	1.0000 
	-5	-6	-2	144562	7077	138892	1.64	-0.93	1.0000 
	-5	-6	3	3197	1051	4454	-1.98	-2.08	1.0000 
	-5	-6	-3	1910	1474	2758	-1.9	0.92	1.0000 
	-5	-6	3	4499	957	5982	-1.98	-2.08	1.0000 
	-6	-5	4	51873	3509	51813	0.03	-2.51	1.0000 
	-5	-6	4	52094	2980	52408	0.21	-2.53	1.0000 
	-5	-6	-4	50356	3408	50250	0.01	2.84	1.0000 
	-6	5	-4	49709	3846	47649	-0.97	2.2	1.0000 
	-6	5	-4	51772	2984	49671	-0.97	2.2	1.0000 
	-6	-5	4	51374	3505	51314	0.03	-2.51	1.0000 
	-5	-6	-4	53045	2989	52941	0.01	2.84	1.0000 
	-5	-6	4	51627	2936	51939	0.21	-2.53	1.0000 
	-6	5	-4	51138	3843	49050	-0.97	2.2	1.0000 
	-5	-6	-4	50305	3296	50199	0.01	2.84	1.0000 
	-6	-5	5	1591	342	1753	0.28	0.87	1.0000 
	-5	-6	5	908	268	1035	0.3	0.87	1.0000 
	-6	5	-5	155	294	628	1.34	-4.16	1.0000 
	-5	-6	-5	1093	339	1171	0.23	0.28	1.0000 
	-6	-5	5	1130	369	1265	0.28	0.87	1.0000 
	-5	-6	-5	615	452	673	0.23	0.28	1.0000 
	-5	-6	5	1268	288	1420	0.3	0.87	1.0000 
	-6	5	5	328	511	1264	1.65	4.71	1.0000 
	-6	5	-5	326	236	1055	1.34	-4.16	1.0000 
	-6	-5	5	1634	354	1798	0.28	0.87	1.0000 
	-5	-6	-5	1327	467	1412	0.23	0.28	1.0000 
	-6	-5	6	6440	1723	6423	0.02	2.12	1.0000 
	-6	5	-6	5109	1629	4454	1.05	-0.03	1.0000 
	-6	-5	-6	6529	1652	6446	0.11	-2.11	1.0000 
	-5	-6	-6	6187	1798	6121	0.08	-2.01	1.0000 
	-6	-5	-6	6409	1496	6326	0.11	-2.11	1.0000 
	-5	-6	-6	5335	1690	5268	0.08	-2.01	1.0000 
	-6	5	6	8173	1681	7359	1.03	-0.06	1.0000 
	-6	5	-6	6391	1088	5656	1.05	-0.03	1.0000 
	-6	-5	6	7307	2055	7295	0.02	2.12	1.0000 
	-5	-6	-6	3820	2165	3750	0.08	-2.01	1.0000 
	-6	-5	-6	4672	1931	4588	0.11	-2.11	1.0000 
	-6	-5	6	6925	1366	6911	0.02	2.12	1.0000 
	5	-6	-6	8645	1169	7783	1.04	-0.31	1.0000 
	-6	5	7	24	224	226	4.39	0.49	1.0000 
	-6	-5	7	45	90	159	-4.16	1.01	1.0000 
	-6	5	-7	88	139	108	4.37	-0.3	1.0000 
	-6	-5	-7	34	157	191	-4.31	-0.55	1.0000 
	-5	-6	-7	58	84	131	-4.19	-0.57	1.0000 
	-6	5	-7	183	81	39	4.37	-0.3	1.0000 
	-6	-5	-7	295	117	6	-4.31	-0.55	1.0000 
	-5	-6	-7	54	178	138	-4.19	-0.57	1.0000 
	6	5	7	105	130	88	-4.31	0.55	1.0000 
	5	6	7	364	152	-9	-4.19	0.57	1.0000 
	-6	-5	7	70	125	120	-4.16	1.01	1.0000 
	-6	5	7	8	135	295	4.39	0.49	1.0000 
	-6	5	-7	64	129	139	4.37	-0.3	1.0000 
	-6	-5	7	21	81	219	-4.16	1.01	1.0000 
	-5	-6	7	53	74	153	-4.24	0.98	1.0000 
	5	-6	-7	2	123	354	4.38	-0.54	1.0000 
	-6	5	8	1906	215	787	3.87	2.01	1.0000 
	-6	-5	8	1949	212	935	3	-0.02	1.0000 
	-6	5	-8	1794	196	716	3.82	-1.96	1.0000 
	-5	-6	-8	1286	230	494	3.02	-0.41	1.0000 
	-6	-5	-8	1381	339	563	2.98	-0.53	1.0000 
	-6	-5	-8	1798	189	840	2.98	-0.53	1.0000 
	-5	-6	-8	1596	220	693	3.02	-0.41	1.0000 
	5	6	8	1268	266	483	3.02	0.41	1.0000 
	6	5	8	1546	283	670	2.98	0.53	1.0000 
	-6	-5	8	2080	249	1027	3	-0.02	1.0000 
	-6	5	8	2409	239	1140	3.87	2.01	1.0000 
	-6	5	-8	1854	174	756	3.82	-1.96	1.0000 
	-6	-5	8	2243	244	1142	3	-0.02	1.0000 
	-5	-6	8	2120	255	1063	2.98	0.09	1.0000 
	5	-6	-8	2575	237	1316	3.87	-2.32	1.0000 
	-6	-5	9	199	146	703	-2.01	-3	1.0000 
	-6	5	9	18	165	497	4.02	0	1.0000 
	-6	-5	-9	73	264	426	-2.1	3.37	1.0000 
	-5	-6	-9	57	208	307	-2.02	3.37	1.0000 
	6	5	9	56	101	241	-2.1	-3.37	1.0000 
	5	6	9	62	129	182	-2.02	-3.37	1.0000 
	-6	5	9	33	123	567	4.02	0	1.0000 
	-6	-5	9	150	123	589	-2.01	-3	1.0000 
	-6	-5	9	75	113	362	-2.01	-3	1.0000 
	-5	-6	9	132	156	527	-1.95	-2.96	1.0000 
	6	-5	-9	74	180	712	4.02	0	1.0000 
	5	-6	-9	41	199	610	4.07	0.03	1.0000 
	-6	-5	10	33905	4612	32839	-0.64	-0.1	1.0000 
	-5	-6	-10	26354	4351	25457	-0.61	0.23	1.0000 
	-6	-5	-10	24239	5004	23270	-0.68	0.45	1.0000 
	6	5	10	26288	3223	25279	-0.68	-0.45	1.0000 
	5	6	10	22762	4997	21929	-0.61	-0.23	1.0000 
	-6	5	10	32276	5224	30620	-1.01	-0.87	1.0000 
	-6	-5	10	35895	5123	34798	-0.64	-0.1	1.0000 
	-6	-5	-10	22877	3809	21936	-0.68	0.45	1.0000 
	-6	-5	10	23617	2756	22728	-0.64	-0.1	1.0000 
	6	-5	-10	31058	3930	29434	-1.01	0.87	1.0000 
	5	-6	-10	27129	3944	25646	-0.99	0.82	1.0000 
	-6	-5	11	4434	784	5228	-1.27	0.14	1.0000 
	-5	-6	-11	1796	1039	2318	-1.28	-0.17	1.0000 
	-6	-5	-11	853	2264	1215	-1.25	-0.18	1.0000 
	5	6	11	1301	1119	1750	-1.28	0.17	1.0000 
	6	5	11	1858	1288	2378	-1.25	0.18	1.0000 
	-6	5	11	4306	843	4441	0.21	0.6	1.0000 
	-6	-5	11	4475	889	5273	-1.27	0.14	1.0000 
	-6	-5	-11	686	2051	1014	-1.25	-0.18	1.0000 
	6	-5	-11	7617	1040	7799	0.21	-0.6	1.0000 
	5	-6	-11	8494	2046	8719	0.25	-0.56	1.0000 
	-6	5	12	64504	6616	63728	0.41	-1.3	1.0000 
	-5	-6	-12	68180	6724	69574	-0.64	-3.18	1.0000 
	-6	5	12	64005	11463	63232	0.41	-1.3	1.0000 
	-5	-6	-12	60114	5638	61411	-0.64	-3.18	1.0000 
	6	-5	-12	55383	5128	54662	0.41	1.3	1.0000 
	6	-5	-12	65634	6485	64852	0.41	1.3	1.0000 
	5	-6	-12	57729	5248	56880	0.46	1.19	1.0000 
	-5	-6	-13	3735	2448	5413	2.76	-0.29	1.0000 
	-6	-5	-13	4569	2098	6385	2.73	-0.16	1.0000 
	-6	5	13	7663	2229	10163	-2.94	0.04	1.0000 
	-6	-5	-13	6089	1821	8163	2.73	-0.16	1.0000 
	-5	-6	-13	4009	1654	5743	2.76	-0.29	1.0000 
	6	-5	-13	4631	1528	6614	-2.94	-0.04	1.0000 
	6	-5	-13	12450	3554	15589	-2.94	-0.04	1.0000 
	5	-6	-13	11694	3989	14691	-2.89	0.08	1.0000 
	-6	5	14	94661	15192	96351	0.62	-0.44	1.0000 
	-6	-5	14	91017	16630	96966	2.1	1.05	1.0000 
	-5	-6	-14	96217	14711	102326	2.1	-1.02	1.0000 
	-6	-5	-14	84282	13867	89907	2.06	-0.95	1.0000 
	5	6	14	96250	14688	102360	2.1	1.02	1.0000 
	6	5	14	96597	14750	102614	2.06	0.95	1.0000 
	-6	-5	14	96142	16288	102254	2.1	1.05	1.0000 
	-6	5	14	96885	15084	98594	0.62	-0.44	1.0000 
	-5	-6	-14	93304	14036	99321	2.1	-1.02	1.0000 
	-6	-5	-14	93546	14112	99468	2.06	-0.95	1.0000 
	6	-5	-14	91721	13818	93384	0.62	0.44	1.0000 
	6	-5	-14	101163	14554	102910	0.62	0.44	1.0000 
	5	-6	-14	99399	14322	101248	0.66	0.35	1.0000 
	-6	5	15	7241	2053	7148	-0.16	1.16	1.0000 
	-5	-6	-15	6078	1876	6318	-0.3	1.51	1.0000 
	-6	-5	-15	4958	2339	5191	-0.33	1.53	1.0000 
	5	6	15	2956	2170	3110	-0.3	-1.51	1.0000 
	6	5	15	3313	2797	3495	-0.33	-1.53	1.0000 
	-6	5	15	8680	1943	8581	-0.16	1.16	1.0000 
	-5	-6	-15	5982	1384	6220	-0.3	1.51	1.0000 
	-6	-5	-15	7286	1902	7578	-0.33	1.53	1.0000 
	6	-5	-15	8160	1788	8063	-0.16	-1.16	1.0000 
	5	-6	-15	12286	2061	12195	-0.14	-1.2	1.0000 
	-6	5	16	103238	8870	104944	-0.63	1.27	1.0000 
	-5	-6	-16	96351	9993	96305	0.01	-0.06	1.0000 
	-6	-5	-16	112952	28327	112826	0.04	-0.05	1.0000 
	5	6	16	109840	27529	109791	0.01	0.06	1.0000 
	6	5	16	111986	28052	111860	0.04	0.05	1.0000 
	-6	5	16	90365	14744	91960	-0.63	1.27	1.0000 
	-5	-6	-16	105705	6198	105657	0.01	-0.06	1.0000 
	-6	-5	-16	116403	29040	116275	0.04	-0.05	1.0000 
	6	5	-16	100056	3154	100130	-0.02	0.15	1.0000 
	6	-5	-16	105816	26984	107544	-0.63	-1.27	1.0000 
	5	-6	-16	111866	28641	113677	-0.64	-1.26	1.0000 
	-5	-6	-17	2671	1087	2615	-0.16	-1	1.0000 
	5	6	17	1425	1001	1379	-0.16	1	1.0000 
	-6	-5	-17	3398	1168	3334	-0.16	-0.95	1.0000 
	-5	-6	-17	4082	1270	4018	-0.16	-1	1.0000 
	5	-6	-17	3297	1243	3652	-0.66	0.77	1.0000 
	6	5	-17	1509	1378	1452	-0.18	-0.91	1.0000 
	6	-5	-17	3110	2058	3451	-0.64	0.91	1.0000 
	-6	-5	17	5845	2017	5749	-0.18	0.91	1.0000 
	5	-6	-17	3091	1004	3434	-0.66	0.77	1.0000 
	-6	-5	-18	48448	3229	49140	0.29	-0.87	1.0000 
	-5	-6	-18	43696	3197	44349	0.29	-0.85	1.0000 
	6	-5	-18	46280	2264	51047	2.39	-0.12	1.0000 
	5	-6	-18	43998	7905	48580	2.36	-0.11	1.0000 
	6	5	-18	43265	3912	43933	0.31	-0.73	1.0000 
	-6	-5	18	44276	2548	44952	0.31	0.73	1.0000 
	6	-5	-18	57524	5513	62826	2.39	-0.12	1.0000 
	-6	-5	-19	693	380	1107	-1.54	-0.42	1.0000 
	-5	-6	-19	524	288	895	-1.55	-0.49	1.0000 
	6	-5	-19	1126	422	1341	0.68	-0.08	1.0000 
	5	-6	-19	948	385	1141	0.66	-0.31	1.0000 
	6	-5	-19	1457	473	1700	0.68	-0.08	1.0000 
	5	-6	-19	1134	387	1344	0.66	-0.31	1.0000 
	-6	-5	-20	12134	2746	11114	1.11	0.7	1.0000 
	-5	-6	-20	10520	2244	9589	1.1	0.75	1.0000 
	6	5	-20	11982	2041	10977	1.11	0.77	1.0000 
	6	-5	-20	13860	2440	13167	0.68	0.3	1.0000 
	5	-6	-20	11086	2092	10492	0.66	0.3	1.0000 
	-6	-5	20	13910	2396	12826	1.11	-0.77	1.0000 
	-5	-6	20	14518	2689	13389	1.12	-0.72	1.0000 
	5	-6	-20	15242	2650	14545	0.66	0.3	1.0000 
	6	-5	-20	15879	2690	15137	0.68	0.3	1.0000 
	5	-6	-20	12505	1986	11874	0.66	0.3	1.0000 
	-6	-5	-21	153	188	250	0.77	0.91	1.0000 
	-5	-6	-21	123	160	205	0.73	1.03	1.0000 
	6	5	-21	411	192	574	0.74	1.1	1.0000 
	6	-5	-21	692	245	697	0.01	-0.46	1.0000 
	5	-6	-21	426	165	438	-0.03	-0.49	1.0000 
	-6	-5	21	410	181	572	0.74	-1.1	1.0000 
	-5	-6	21	573	232	771	0.78	-0.99	1.0000 
	6	-5	-21	746	244	751	0.01	-0.46	1.0000 
	5	-6	-21	617	261	632	-0.03	-0.49	1.0000 
	5	-6	-21	637	241	652	-0.03	-0.49	1.0000 
	6	-5	-21	953	304	960	0.01	-0.46	1.0000 
	-6	-5	-22	483	176	351	-0.89	-0.5	1.0000 
	-5	-6	-22	244	142	150	-0.89	-0.47	1.0000 
	6	5	-22	309	89	203	-0.88	-0.45	1.0000 
	6	-5	-22	158	143	255	0.79	0.25	1.0000 
	5	-6	-22	256	151	375	0.78	0.26	1.0000 
	-6	-5	22	500	124	364	-0.88	0.45	1.0000 
	6	-5	-22	315	152	448	0.79	0.25	1.0000 
	5	-6	-22	362	197	502	0.78	0.26	1.0000 
	6	-5	-22	265	196	387	0.79	0.25	1.0000 
	5	-6	-22	80	98	150	0.78	0.26	1.0000 
	-6	-5	-23	247	250	598	-1.94	-0.57	1.0000 
	-5	-6	-23	252	228	612	-1.97	-0.44	1.0000 
	5	-6	-23	684	256	732	0.2	-0.09	1.0000 
	6	5	-23	242	191	592	-1.95	-0.37	1.0000 
	6	-5	-23	782	289	838	0.22	0.01	1.0000 
	-6	-5	23	201	181	527	-1.95	0.37	1.0000 
	6	-5	-23	518	264	564	0.22	0.01	1.0000 
	5	-6	-23	239	171	267	0.2	-0.09	1.0000 
	5	-6	-23	622	247	668	0.2	-0.09	1.0000 
	6	-5	-23	774	291	830	0.22	0.01	1.0000 
	6	5	-23	195	203	517	-1.95	-0.37	1.0000 
	-5	-6	-24	1017	273	721	-1.11	0.18	1.0000 
	5	-6	-24	1271	297	901	-1.26	-0.16	1.0000 
	6	5	-24	876	193	603	-1.11	0.22	1.0000 
	6	-5	-24	1393	346	1007	-1.26	-0.22	1.0000 
	-6	-5	24	1049	240	748	-1.11	-0.22	1.0000 
	6	-5	-24	1186	271	832	-1.26	-0.22	1.0000 
	5	-6	-24	1041	263	709	-1.26	-0.16	1.0000 
	6	-5	-24	1130	277	785	-1.26	-0.22	1.0000 
	6	5	-24	855	196	585	-1.11	0.22	1.0000 
	5	-6	-24	1053	291	719	-1.26	-0.16	1.0000 
	-5	-6	-25	534	301	715	0.81	0.9	1.0000 
	5	-6	-25	1768	577	1623	0.43	-0.69	1.0000 
	6	5	-25	890	417	1124	0.81	0.75	1.0000 
	6	-5	-25	1935	685	1778	0.44	-0.64	1.0000 
	-6	-5	25	1350	611	1638	0.81	-0.75	1.0000 
	5	-6	-25	1829	616	1681	0.43	-0.69	1.0000 
	6	-5	-25	1432	481	1296	0.44	-0.64	1.0000 
	6	5	-25	893	414	1128	0.81	0.75	1.0000 
	5	-6	-25	962	336	853	0.43	-0.69	1.0000 
	6	-5	-25	1900	671	1745	0.44	-0.64	1.0000 
	-5	-6	-26	16159	3495	13738	2.21	0.33	1.0000 
	5	-6	-26	23704	3925	20995	2.07	0.83	1.0000 
	6	-5	-26	21790	4273	19208	2.04	0.63	1.0000 
	6	5	-26	14306	2391	12062	2.18	0.25	1.0000 
	-6	-5	26	15754	2792	13394	2.18	-0.25	1.0000 
	6	-5	-26	15612	2654	13437	2.04	0.63	1.0000 
	5	-6	-26	20321	3361	17818	2.07	0.83	1.0000 
	5	-6	-26	17342	2944	15034	2.07	0.83	1.0000 
	6	-5	-26	19924	3450	17458	2.04	0.63	1.0000 
	-5	-6	-27	554	294	536	0.12	0.54	1.0000 
	6	-5	-27	1395	524	1193	-0.66	-0.68	1.0000 
	5	-6	-27	1086	420	907	-0.66	-0.65	1.0000 
	-5	-6	27	877	380	861	0.09	-0.45	1.0000 
	-6	-5	27	957	410	937	0.1	-0.42	1.0000 
	6	-5	-27	413	149	302	-0.66	-0.68	1.0000 
	5	-6	-27	808	327	654	-0.66	-0.65	1.0000 
	5	-6	-27	522	216	398	-0.66	-0.65	1.0000 
	6	-5	-27	1148	439	965	-0.66	-0.68	1.0000 
	-5	-6	-28	34086	8454	32852	-0.77	-0.44	1.0000 
	6	-5	-28	40943	10390	42822	1.01	-0.19	1.0000 
	5	-6	-28	39261	10208	41075	1	-0.03	1.0000 
	-5	-6	28	31069	7701	29914	-0.76	0.5	1.0000 
	-6	-5	28	26199	6378	25059	-0.81	0.44	1.0000 
	5	-6	-28	7992	3262	8822	1	-0.03	1.0000 
	5	-6	-28	30365	8268	31963	1	-0.03	1.0000 
	6	-5	-28	39439	10402	41284	1.01	-0.19	1.0000 
	-5	-6	-29	117	109	167	0.47	0.07	1.0000 
	6	-5	-29	707	440	699	0.7	1.41	1.0000 
	5	-6	-29	633	287	630	0.68	1.43	1.0000 
	-5	-6	29	336	211	410	0.42	-0.03	1.0000 
	-6	-5	29	232	147	292	0.41	-0.05	1.0000 
	5	-6	-29	482	255	473	0.68	1.43	1.0000 
	6	-5	-29	825	389	821	0.7	1.41	1.0000 
	-5	-6	-30	42861	11302	43025	-0.11	-0.51	1.0000 
	6	-5	-30	55965	27664	56394	-0.2	0.01	1.0000 
	5	-6	-30	49600	13090	50037	-0.21	0.07	1.0000 
	-5	-6	30	31980	8362	32122	-0.11	0.46	1.0000 
	-6	-5	30	17835	4681	17965	-0.13	0.46	1.0000 
	5	-6	-30	32451	9269	32804	-0.21	0.07	1.0000 
	6	-5	-30	48310	13390	48708	-0.2	0.01	1.0000 
	-6	-6	0	144492	15714	145738	0.32	-0.93	1.0000 
	-6	-6	0	141131	15320	142362	0.32	-0.93	1.0000 
	-6	-6	0	144801	15720	146048	0.32	-0.93	1.0000 
	6	-6	-2	54810	5643	52590	1.26	2.36	1.0000 
	6	-6	-3	7574	1130	6101	-2.76	-3.85	1.0000 
	-6	-6	-4	12627	4275	13028	0.43	0.5	1.0000 
	-6	-6	-5	9927	1946	8061	-2.17	1.63	1.0000 
	-6	-6	5	11220	1525	9191	-2.29	-2.74	1.0000 
	-6	-6	-6	9	443	782	-5.53	0.62	1.0000 
	6	-6	-6	1476	956	3751	-5.01	-1.8	1.0000 
	-6	-6	-8	2798	779	4236	-2.54	-2.07	1.0000 
	-6	-6	-9	33294	5998	33117	-0.16	-1.2	1.0000 
	-6	-6	-9	26639	4292	26477	-0.16	-1.2	1.0000 
	6	-6	-10	11097	3533	19025	7.23	0.38	1.0000 
	-6	-6	-11	30013	4369	28876	0.72	-0.57	1.0000 
	6	-6	-11	34693	7958	38858	2.39	0.48	1.0000 
	-6	-6	-12	18322	6801	16977	1.16	0.57	1.0000 
	6	6	12	25683	6545	24087	1.16	-0.57	1.0000 
	6	-6	-12	38821	6932	36730	1.25	0.82	1.0000 
	-6	-6	-13	11257	4346	9273	-2.16	1.03	1.0000 
	6	6	13	8309	5424	6615	-2.16	-1.03	1.0000 
	-6	-6	-13	17273	3458	14797	-2.16	1.03	1.0000 
	6	-6	-13	34441	3092	29641	3.01	-1.03	1.0000 
	-6	-6	-14	57309	3626	53019	-2.04	-0.23	1.0000 
	-6	-6	-15	5219	1534	4965	0.41	0.54	1.0000 
	-6	-6	-16	98653	13271	86890	4.3	0.48	1.0000 
	6	-6	-16	96108	12526	82101	5.23	0.65	1.0000 
	6	-6	-16	97593	13087	83474	5.23	0.65	1.0000 
	-6	-6	-17	108	698	1271	-5.6	-0.43	1.0000 
	6	-6	-17	271	567	1278	4.27	0.01	1.0000 
	-6	-6	-18	52177	4524	46861	-2.69	-0.7	1.0000 
	6	-6	-18	48135	4046	41748	-3.34	0.02	1.0000 
	6	-6	-18	37652	4015	32029	-3.34	0.02	1.0000 
	-6	-6	-19	6403	1118	5783	-0.87	0.82	1.0000 
	6	-6	-19	8405	1136	6576	2.34	1.39	1.0000 
	6	-6	-19	10401	1105	8359	2.34	1.39	1.0000 
	-6	-6	-20	9769	2681	13096	-3.48	-0.47	1.0000 
	6	-6	-20	12283	2465	15897	-3.37	0.26	1.0000 
	6	-6	-20	11439	1738	14934	-3.37	0.26	1.0000 
	-6	-6	-21	9665	2966	10524	-0.96	-0.39	1.0000 
	6	-6	-21	13078	3333	13330	0.24	0.14	1.0000 
	6	-6	-21	15735	2780	16011	0.24	0.14	1.0000 
	6	-6	-21	13547	3326	13804	0.24	0.14	1.0000 
	-6	-6	-22	378	468	1139	3.17	-0.13	1.0000 
	6	-6	-22	1059	569	1768	2	-0.9	1.0000 
	6	-6	-22	851	496	1496	2	-0.9	1.0000 
	6	-6	-22	514	338	1033	2	-0.9	1.0000 
	-6	-6	-23	8026	2572	8131	0.15	0.66	1.0000 
	6	-6	-23	10592	4707	11196	-0.66	1.6	1.0000 
	-6	-6	23	10036	2948	10162	0.15	-0.47	1.0000 
	6	-6	-23	13453	2644	14140	-0.66	1.6	1.0000 
	6	-6	-23	11252	2202	11876	-0.66	1.6	1.0000 
	-6	-6	-24	1617	751	1863	0.64	1.07	1.0000 
	6	-6	-24	1984	796	2666	1.56	-0.28	1.0000 
	-6	-6	24	2190	827	2467	0.62	-1.09	1.0000 
	6	-6	-24	1879	694	2544	1.56	-0.28	1.0000 
	6	-6	-24	724	440	1156	1.56	-0.28	1.0000 
	-6	-6	-25	6052	2256	6046	-0.01	-1.03	1.0000 
	6	-6	-25	11473	2675	9709	-1.89	-0.35	1.0000 
	-6	-6	25	7650	2304	7570	0.08	0.92	1.0000 
	6	-6	-25	10845	3844	9132	-1.89	-0.35	1.0000 
	6	-6	-25	9449	2285	7855	-1.89	-0.35	1.0000 
	-6	-6	-26	9954	3045	10675	-0.81	-0.88	1.0000 
	6	-6	-26	15447	3781	15100	0.36	0.67	1.0000 
	-6	-6	26	10425	2957	11118	-0.77	0.83	1.0000 
	6	-6	-26	12526	3205	12212	0.36	0.67	1.0000 
	6	-6	-26	12052	3006	11744	0.36	0.67	1.0000 
	-6	-6	-27	2561	1121	3264	1.44	-0.2	1.0000 
	6	-6	-27	3906	1303	4423	-0.86	-0.63	1.0000 
	-6	-6	27	2864	1106	3616	1.45	0.37	1.0000 
	6	-6	-27	2329	875	2730	-0.86	-0.63	1.0000 
	6	-6	-27	2629	927	3055	-0.86	-0.63	1.0000 
	-6	-6	-28	18871	6346	21090	1.75	0.28	1.0000 
	6	-6	-28	25017	7340	26968	1.31	-0.59	1.0000 
	-6	-6	28	15453	5088	17538	1.82	-0.33	1.0000 
	6	-6	-28	17788	5328	19439	1.31	-0.59	1.0000 
	-6	-6	-29	414	367	778	-1.66	0.22	1.0000 
	6	-6	-29	1672	726	1984	0.81	-0.58	1.0000 
	-6	-6	29	899	509	1415	-1.69	-0.03	1.0000 
	6	-6	-29	1584	668	1888	0.81	-0.58	1.0000 
	-7	0	-2	53679	3197	51290	-1.13	1.48	1.0000 
	-7	0	-2	53747	3192	51356	-1.13	1.48	1.0000 
	-7	0	-2	55690	3291	53257	-1.13	1.48	1.0000 
	-7	0	4	16955	1455	16378	0.64	-1.82	1.0000 
	-7	0	-4	18013	2493	17336	0.7	1.76	1.0000 
	-7	0	4	16893	1439	16317	0.64	-1.82	1.0000 
	-7	0	4	16531	1424	15960	0.64	-1.82	1.0000 
	-7	0	6	365	312	1199	2.8	-3.57	1.0000 
	-7	0	-6	236	351	936	2.88	3.69	1.0000 
	-7	0	6	363	360	1194	2.8	-3.57	1.0000 
	-7	0	-6	180	354	780	2.88	3.69	1.0000 
	7	0	6	223	360	902	2.88	-3.69	1.0000 
	-7	0	6	188	255	779	2.8	-3.57	1.0000 
	-7	0	8	14929	3805	14543	-0.38	-1.43	1.0000 
	-7	0	-8	14023	1768	13863	-0.16	1.15	1.0000 
	7	0	8	13657	1604	13499	-0.16	-1.15	1.0000 
	-7	0	8	16676	4010	16270	-0.38	-1.43	1.0000 
	-7	0	10	7809	1398	5109	4.35	3.86	1.0000 
	-7	0	-10	7659	1992	4929	4.43	-3.82	1.0000 
	7	0	10	7929	1716	5153	4.43	3.82	1.0000 
	-7	0	10	8751	1524	5901	4.35	3.86	1.0000 
	-7	0	-12	29093	2301	27947	-0.76	-0.26	1.0000 
	7	0	12	28973	2165	27829	-0.76	0.26	1.0000 
	-7	0	-12	28879	1903	27737	-0.76	-0.26	1.0000 
	0	-7	-12	28925	2705	27742	-0.79	-0.32	1.0000 
	-7	0	14	84366	9658	88007	-1.38	0.41	1.0000 
	7	0	14	84544	10759	88350	-1.44	0.52	1.0000 
	-7	0	14	87341	9994	91045	-1.38	0.41	1.0000 
	0	-7	-14	84573	9340	88300	-1.41	-0.4	1.0000 
	-7	0	16	124196	12248	126757	0.8	0.18	1.0000 
	-7	0	-16	124606	12689	126944	0.73	-0.15	1.0000 
	7	0	16	127512	12820	129877	0.73	0.15	1.0000 
	-7	0	16	127100	12367	129691	0.8	0.18	1.0000 
	-7	0	-16	138736	12758	141202	0.73	-0.15	1.0000 
	0	-7	16	131940	12483	134455	0.76	0.31	1.0000 
	0	-7	-16	134008	12330	136524	0.76	-0.03	1.0000 
	-7	0	18	115041	16518	110519	1.49	0.31	1.0000 
	-7	0	-18	114633	17963	110089	1.49	-0.42	1.0000 
	7	0	18	128321	18166	123511	1.49	0.42	1.0000 
	-7	0	18	115536	16577	111004	1.49	0.31	1.0000 
	-7	0	-18	128235	17999	123427	1.49	-0.42	1.0000 
	0	-7	18	135286	33011	130569	1.43	0.34	1.0000 
	0	-7	-18	131659	18324	126631	1.54	-0.36	1.0000 
	-7	0	-20	42004	2871	66819	11.84	-0.63	1.0000 
	7	0	-20	412723	120453	484118	11.8	-0.48	1.0000 
	0	-7	20	42983	1869	67841	11.76	0.52	1.0000 
	-7	0	-22	19256	2821	15781	2.96	-1.97	1.0000 
	7	0	-22	17684	3336	14341	2.98	-1.92	1.0000 
	0	-7	22	20885	3490	17297	2.93	1.83	1.0000 
	0	-7	-22	21353	3219	17652	3	-2.05	1.0000 
	-7	0	-24	2227	645	1605	1.58	-0.16	1.0000 
	0	-7	-24	1850	459	1290	1.57	-0.13	1.0000 
	7	0	-24	2782	676	2082	1.57	-0.19	1.0000 
	0	-7	24	2730	667	2033	1.58	0.21	1.0000 
	0	-7	-24	1268	294	813	1.57	-0.13	1.0000 
	-7	0	-26	572	256	510	0.31	-0.12	1.0000 
	0	-7	-26	670	203	608	0.28	-0.14	1.0000 
	7	0	-26	813	260	743	0.3	-0.22	1.0000 
	0	-7	26	858	294	777	0.33	0.2	1.0000 
	0	-7	-26	476	170	424	0.28	-0.14	1.0000 
	-7	0	-28	36	248	-29	-0.43	-1.26	1.0000 
	0	-7	-28	40	138	23	-0.49	-1.37	1.0000 
	7	0	-28	74	152	96	-0.48	-1.49	1.0000 
	0	-7	28	170	219	209	-0.42	1.4	1.0000 
	0	-7	-28	41	166	24	-0.49	-1.37	1.0000 
	7	0	-28	50	339	-115	-0.48	-1.49	1.0000 
	-7	0	-30	2185	857	2220	0.13	0.84	1.0000 
	0	-7	-30	2027	672	2063	0.13	0.8	1.0000 
	7	0	-30	3121	951	3188	0.17	0.69	1.0000 
	0	-7	-30	959	355	979	0.13	0.8	1.0000 
	7	0	-30	2612	814	2673	0.17	0.69	1.0000 
	-7	0	-32	5894	1803	5723	0.27	0.27	1.0000 
	0	-7	-32	3442	1266	3314	0.26	0.25	1.0000 
	7	0	-32	6218	1744	6018	0.3	0.26	1.0000 
	0	-7	-32	1922	755	1826	0.26	0.25	1.0000 
	7	0	-32	6026	1579	5830	0.3	0.26	1.0000 
	-7	-1	4	8657	1740	12555	-4.22	0.26	1.0000 
	-7	-1	4	8410	1475	12257	-4.22	0.26	1.0000 
	-7	-1	4	8526	1503	12397	-4.22	0.26	1.0000 
	-7	-1	-5	67718	3817	65418	0.97	-0.52	1.0000 
	-7	1	-5	69116	3746	63973	-2.2	-0.15	1.0000 
	-7	-1	-5	66163	3723	63890	0.97	-0.52	1.0000 
	-7	1	-5	70397	3771	65206	-2.2	-0.15	1.0000 
	-7	1	-5	68219	3689	63110	-2.2	-0.15	1.0000 
	-7	-1	-6	3878	1925	5094	-1.55	-2.1	1.0000 
	-7	1	-6	3703	1721	5025	1.51	-5.23	1.0000 
	-7	-1	-6	2375	1687	3331	-1.55	-2.1	1.0000 
	-7	1	-6	2586	1941	3617	1.51	-5.23	1.0000 
	7	1	6	2411	2067	3375	-1.55	2.1	1.0000 
	-7	1	-6	2161	2110	3060	1.51	-5.23	1.0000 
	-7	1	-7	49200	3739	63193	-6.59	-1.56	1.0000 
	-7	-1	-7	66326	3741	63167	-1.34	-1.61	1.0000 
	-7	1	-7	49897	3754	63983	-6.59	-1.56	1.0000 
	-7	-1	-7	67901	3809	64705	-1.34	-1.61	1.0000 
	7	-1	7	51686	3754	66008	-6.59	1.56	1.0000 
	7	1	7	65910	3607	62761	-1.34	1.61	1.0000 
	-7	1	-8	30205	3855	27821	-1.58	-1.04	1.0000 
	-7	1	-8	32501	2206	30027	-1.58	-1.04	1.0000 
	-7	-1	-8	31574	4821	27135	-2.96	-2	1.0000 
	7	1	8	34780	2138	30117	-2.96	2	1.0000 
	7	-1	8	32744	2131	30261	-1.58	1.04	1.0000 
	-7	-1	-9	36990	3464	41524	-2.52	0.28	1.0000 
	-7	1	-9	40867	2876	43765	1.57	-0.24	1.0000 
	7	-1	9	36899	4863	39655	1.57	0.24	1.0000 
	7	1	9	36404	4221	40903	-2.52	-0.28	1.0000 
	-7	-1	-10	4783	1999	5277	-0.64	1.51	1.0000 
	7	1	10	4635	2127	5121	-0.64	-1.51	1.0000 
	-7	-1	-11	10349	4177	10096	-0.24	0.59	1.0000 
	-7	1	-11	12556	3864	11027	1.57	-0.22	1.0000 
	7	1	11	10238	2915	9987	-0.24	-0.59	1.0000 
	-7	1	12	9426	2192	10589	1.28	0.09	1.0000 
	-7	-1	12	8497	2061	10423	2.12	1.18	1.0000 
	-7	-1	-12	6269	2634	7910	2.1	-1.14	1.0000 
	-7	1	-12	7178	3074	8188	1.27	-0.19	1.0000 
	7	1	12	6147	2639	7772	2.1	1.14	1.0000 
	7	-1	12	6110	2516	7044	1.27	0.19	1.0000 
	-7	-1	12	8003	1846	9874	2.12	1.18	1.0000 
	-7	1	12	8921	2664	10053	1.28	0.09	1.0000 
	-7	-1	-12	6705	1362	8399	2.1	-1.14	1.0000 
	7	1	-12	8560	1806	10492	2.12	-1.18	1.0000 
	7	-1	-12	9618	1660	10792	1.28	-0.09	1.0000 
	-1	-7	12	8673	1387	10612	2.12	1.15	1.0000 
	-1	-7	-12	9656	1385	11679	2.1	-1.17	1.0000 
	1	-7	-12	10458	1330	11701	1.3	-0.14	1.0000 
	-7	-1	13	982	248	1061	-0.12	-0.52	1.0000 
	-7	1	13	863	240	1022	0.59	0.1	1.0000 
	-7	-1	-13	615	447	682	-0.16	0.47	1.0000 
	-7	1	-13	566	214	696	0.59	-0.13	1.0000 
	7	1	13	637	338	705	-0.16	-0.47	1.0000 
	7	-1	13	465	430	584	0.59	0.13	1.0000 
	-7	-1	13	614	198	675	-0.12	-0.52	1.0000 
	-7	1	13	689	209	832	0.59	0.1	1.0000 
	-7	-1	-13	579	195	644	-0.16	0.47	1.0000 
	7	1	-13	617	119	679	-0.12	0.52	1.0000 
	7	-1	-13	579	178	710	0.59	-0.1	1.0000 
	-1	-7	13	716	184	779	-0.17	-0.32	1.0000 
	1	-7	13	827	180	992	0.61	0.05	1.0000 
	-1	-7	-13	890	210	980	-0.09	0.71	1.0000 
	1	-7	-13	457	138	568	0.56	-0.19	1.0000 
	-7	-1	14	29968	5291	24865	3.41	0.24	1.0000 
	-7	-1	-14	22566	6857	18195	3.39	-0.24	1.0000 
	-7	1	-14	23480	6549	21211	1.72	0.73	1.0000 
	7	1	14	23896	5762	19392	3.39	0.24	1.0000 
	7	-1	14	26291	3179	23888	1.72	-0.73	1.0000 
	-7	1	14	27203	5392	24692	1.76	-0.61	1.0000 
	-7	-1	-14	28893	2822	23917	3.39	-0.24	1.0000 
	-1	-7	14	30816	3989	25675	3.39	0.09	1.0000 
	-1	-7	-14	33887	4171	28460	3.4	-0.34	1.0000 
	1	-7	-14	30907	4055	28233	1.75	0.63	1.0000 
	-7	-1	-15	2424	787	2163	0.6	0.01	1.0000 
	7	1	15	2430	873	2168	0.6	-0.01	1.0000 
	7	-1	15	3099	701	2144	-2.08	-0.44	1.0000 
	-7	1	15	4942	887	3651	-2.19	-0.22	1.0000 
	-7	-1	-15	2656	672	2382	0.6	0.01	1.0000 
	-1	-7	15	4729	830	4371	0.59	0.05	1.0000 
	1	-7	-15	4960	545	3701	-2.13	0.33	1.0000 
	-1	-7	-15	3922	657	3541	0.69	0.04	1.0000 
	-7	1	16	34984	8031	34614	-0.23	0.29	1.0000 
	7	1	16	26494	7104	24502	-1.41	0.59	1.0000 
	-7	-1	16	36349	6567	33932	-1.44	0.35	1.0000 
	-7	1	16	37013	7394	36632	-0.23	0.29	1.0000 
	-7	-1	-16	38871	5267	36452	-1.41	-0.59	1.0000 
	7	1	-16	38371	5932	35886	-1.44	-0.35	1.0000 
	-1	-7	16	41467	6408	38879	-1.44	0.28	1.0000 
	1	-7	-16	36327	6055	35896	-0.26	-0.32	1.0000 
	-1	-7	-16	42433	7041	39909	-1.41	-0.66	1.0000 
	-7	1	17	6949	3712	6274	0.97	-1.13	1.0000 
	-7	-1	17	9973	1795	9323	-0.74	-0.33	1.0000 
	-7	-1	-17	6801	2529	6264	-0.75	0.44	1.0000 
	7	1	17	7079	2158	6531	-0.75	-0.44	1.0000 
	-7	-1	17	10451	1796	9785	-0.74	-0.33	1.0000 
	-7	1	17	5732	4024	5118	0.97	-1.13	1.0000 
	-7	-1	-17	9394	2275	8762	-0.75	0.44	1.0000 
	7	-1	-17	11409	1671	10547	0.97	1.13	1.0000 
	7	1	-17	9952	2327	9302	-0.74	0.33	1.0000 
	-1	-7	17	16018	2944	15194	-0.75	-0.46	1.0000 
	1	-7	-17	15379	2316	14357	1.01	1.35	1.0000 
	-1	-7	-17	13903	2358	13117	-0.76	0.32	1.0000 
	-7	-1	18	34809	5201	32965	1.09	1.25	1.0000 
	-7	1	18	30600	5999	29840	0.5	-0.31	1.0000 
	-7	-1	-18	20761	8054	19298	1.12	-1.33	1.0000 
	7	1	18	22913	7785	21377	1.12	1.33	1.0000 
	-7	-1	18	35034	7488	33184	1.09	1.25	1.0000 
	-7	1	18	32930	6146	32141	0.5	-0.31	1.0000 
	-7	-1	-18	34322	5279	32444	1.12	-1.33	1.0000 
	7	1	-18	34693	4960	32852	1.09	-1.25	1.0000 
	7	-1	-18	35802	5154	34979	0.5	0.31	1.0000 
	1	-7	18	39188	5925	38233	0.55	-0.3	1.0000 
	-1	-7	18	42027	6554	39946	1.12	1.24	1.0000 
	1	-7	-18	36556	6332	35771	0.47	0.32	1.0000 
	-1	-7	-18	35425	5045	33587	1.08	-1.34	1.0000 
	-7	-1	-19	13737	3288	15250	-1.4	-0.33	1.0000 
	7	-1	-19	20290	3211	19013	-1.02	0.22	1.0000 
	1	-7	19	22739	2278	21377	-1.02	-0.2	1.0000 
	-1	-7	19	22877	2808	24769	-1.36	0.07	1.0000 
	-7	-1	-20	15566	2101	14531	-0.97	-0.85	1.0000 
	7	-1	-20	20736	1519	18323	-1.91	0	1.0000 
	1	-7	20	18557	2391	16302	-1.89	0.02	1.0000 
	-1	-7	20	22142	2508	20969	-0.92	0.74	1.0000 
	-7	-1	-21	20826	5635	22972	1.65	1.22	1.0000 
	7	1	-21	24839	4430	27174	1.64	1.27	1.0000 
	7	-1	-21	28010	5994	28385	-0.24	-0.07	1.0000 
	1	-7	21	29172	4713	29502	-0.21	0.16	1.0000 
	-1	-7	21	28049	5070	30526	1.64	-1.32	1.0000 
	-7	-1	-22	1491	1027	1801	-0.82	-1.09	1.0000 
	7	1	-22	2698	1073	3126	-0.84	-1.06	1.0000 
	7	-1	-22	3681	1190	3515	0.45	1.28	1.0000 
	1	-7	22	3879	1090	3710	0.45	-1.28	1.0000 
	-1	-7	22	3459	1234	3938	-0.83	1.03	1.0000 
	1	-7	-22	4222	1231	4043	0.46	1.29	1.0000 
	-7	-1	-23	24374	4657	27243	-1.97	0.2	1.0000 
	-1	-7	-23	12030	3181	14045	-1.95	0.24	1.0000 
	7	1	-23	25902	3193	28899	-2	0.11	1.0000 
	7	-1	-23	24738	5218	27535	1.9	0.43	1.0000 
	-1	-7	23	28380	4962	31514	-2	-0.09	1.0000 
	1	-7	23	27865	4364	30854	1.92	-0.3	1.0000 
	1	-7	-23	28194	4321	31167	1.9	0.31	1.0000 
	-7	-1	-24	5401	1529	5720	-0.47	0.14	1.0000 
	1	-7	-24	3831	1531	4605	-1.32	-1.1	1.0000 
	-1	-7	-24	4017	1489	4271	-0.44	0.11	1.0000 
	7	1	-24	7083	1112	7425	-0.44	0.07	1.0000 
	7	-1	-24	5362	1691	6305	-1.35	-1.17	1.0000 
	-1	-7	24	7953	1910	8344	-0.48	-0.09	1.0000 
	1	-7	24	6538	1221	7553	-1.32	1.13	1.0000 
	1	-7	-24	6401	976	7398	-1.32	-1.1	1.0000 
	-1	-7	-24	2556	850	2759	-0.44	0.11	1.0000 
	1	-7	-24	1800	773	2334	-1.32	-1.1	1.0000 
	-7	-1	-25	25314	4637	26373	0.69	-0.68	1.0000 
	1	-7	-25	15116	4315	14278	0.76	0.19	1.0000 
	-1	-7	-25	14535	6116	15341	0.7	-0.7	1.0000 
	7	-1	-25	32716	5942	31397	0.81	0.18	1.0000 
	7	1	-25	23392	5748	24418	0.69	-0.76	1.0000 
	-1	-7	25	29729	5416	30881	0.69	0.75	1.0000 
	1	-7	25	33470	5776	32180	0.79	-0.01	1.0000 
	1	-7	-25	21335	3771	20337	0.76	0.19	1.0000 
	1	-7	-25	9322	2248	8666	0.76	0.19	1.0000 
	-7	-1	-26	320	314	374	-0.34	0.65	1.0000 
	-1	-7	-26	145	135	182	-0.36	0.67	1.0000 
	1	-7	-26	143	130	133	0.06	0.49	1.0000 
	7	1	-26	712	306	806	-0.38	0.62	1.0000 
	7	-1	-26	1029	413	1014	0.04	0.35	1.0000 
	-1	-7	26	996	393	1102	-0.36	-0.63	1.0000 
	1	-7	26	656	309	637	0.07	-0.41	1.0000 
	1	-7	-26	391	166	377	0.06	0.49	1.0000 
	-1	-7	-26	305	144	362	-0.36	0.67	1.0000 
	-7	-1	-27	14298	3748	12480	1.71	-0.76	1.0000 
	-1	-7	-27	10929	2972	9354	1.71	-0.75	1.0000 
	1	-7	-27	6427	1955	5250	-1.7	-0.31	1.0000 
	7	1	-27	15960	3734	14036	1.72	-0.73	1.0000 
	7	-1	-27	17110	3302	15156	-1.7	-0.19	1.0000 
	-1	-7	27	17571	3335	15546	1.72	0.76	1.0000 
	1	-7	27	18646	3800	16564	-1.73	0.29	1.0000 
	1	-7	-27	5912	1401	4785	-1.7	-0.31	1.0000 
	-1	-7	-27	8335	2156	6966	1.71	-0.75	1.0000 
	-7	-1	-28	4	157	38	-0.81	1.61	1.0000 
	-1	-7	-28	64	152	-13	-0.81	1.58	1.0000 
	1	-7	-28	12	81	15	0.97	1.18	1.0000 
	7	1	-28	146	221	405	-0.87	1.56	1.0000 
	7	-1	-28	147	229	334	0.95	1.14	1.0000 
	-1	-7	28	131	259	385	-0.88	-1.59	1.0000 
	1	-7	-28	116	144	292	0.97	1.18	1.0000 
	-1	-7	-28	46	158	218	-0.81	1.58	1.0000 
	7	-1	-28	798	450	1191	0.95	1.14	1.0000 
	7	1	-28	501	377	926	-0.87	1.56	1.0000 
	-7	-1	-29	3552	1328	3482	-0.14	-0.11	1.0000 
	-1	-7	-29	3253	1045	3179	-0.15	-0.13	1.0000 
	1	-7	-29	3345	1015	2987	0.68	0.94	1.0000 
	7	1	-29	4143	1285	4062	-0.15	-0.11	1.0000 
	7	-1	-29	5687	1548	5229	0.67	0.92	1.0000 
	-1	-7	29	4513	1351	4431	-0.14	0.1	1.0000 
	1	-7	-29	1786	708	1523	0.68	0.94	1.0000 
	-1	-7	-29	1741	531	1687	-0.15	-0.13	1.0000 
	7	1	-29	3895	1131	3817	-0.15	-0.11	1.0000 
	7	-1	-29	5420	1444	4973	0.67	0.92	1.0000 
	-7	-1	-30	2154	783	1843	-0.75	0.42	1.0000 
	-1	-7	-30	2092	624	1789	-0.74	0.46	1.0000 
	1	-7	-30	2115	613	1798	-0.82	-0.31	1.0000 
	7	1	-30	3913	1061	3480	-0.77	0.35	1.0000 
	7	-1	-30	3491	906	3053	-0.87	-0.26	1.0000 
	-1	-7	30	3018	795	2637	-0.77	-0.35	1.0000 
	1	-7	-30	1328	386	1079	-0.82	-0.31	1.0000 
	-1	-7	-30	1105	467	887	-0.74	0.46	1.0000 
	7	1	-30	3574	919	3161	-0.77	0.35	1.0000 
	7	-1	-30	2950	803	2548	-0.87	-0.26	1.0000 
	-7	-1	-31	4	106	14	-0.48	-0.36	1.0000 
	-1	-7	-31	25	64	50	-0.49	-0.37	1.0000 
	1	-7	-31	64	91	72	0.09	0.38	1.0000 
	7	1	-31	105	168	154	-0.47	-0.38	1.0000 
	7	-1	-31	321	243	343	0.1	0.37	1.0000 
	1	-7	-31	82	64	91	0.09	0.38	1.0000 
	7	1	-31	154	173	213	-0.47	-0.38	1.0000 
	7	-1	-31	643	362	675	0.1	0.37	1.0000 
	-7	-1	-32	7038	2026	6464	0.82	0.54	1.0000 
	1	-7	-32	3481	1282	3367	0.2	-0.4	1.0000 
	-1	-7	-32	3793	1269	3353	0.86	0.62	1.0000 
	7	-1	-32	8338	2354	8160	0.2	-0.41	1.0000 
	7	1	-32	8847	2304	8174	0.86	0.61	1.0000 
	1	-7	-32	1763	703	1681	0.2	-0.4	1.0000 
	7	1	-32	7627	1915	7002	0.86	0.61	1.0000 
	7	-1	-32	7541	2013	7372	0.2	-0.41	1.0000 
	-7	-2	0	223	154	596	-2.1	0.08	1.0000 
	-7	-2	0	147	286	466	-2.1	0.08	1.0000 
	-7	-2	0	306	376	727	-2.1	0.08	1.0000 
	-7	2	0	1110	316	439	2.91	-0.68	1.0000 
	-7	2	-1	11244	1434	12500	1.16	-1.75	1.0000 
	-7	2	-1	11081	1445	12328	1.16	-1.75	1.0000 
	-7	-2	-6	15812	6649	20343	-2.86	-5.11	1.0000 
	-7	2	6	20090	2612	22097	-1.48	1.09	1.0000 
	-7	-2	-6	17994	4847	22837	-2.86	-5.11	1.0000 
	7	2	6	20162	3790	25295	-2.86	5.11	1.0000 
	-7	-2	-7	279783	13248	278888	-0.14	2.31	1.0000 
	-7	-2	-7	283371	29763	282471	-0.14	2.31	1.0000 
	7	2	7	277155	12986	276264	-0.14	-2.31	1.0000 
	-7	-2	8	42796	4626	46550	1.96	-0.78	1.0000 
	-7	-2	8	32781	3725	36075	1.96	-0.78	1.0000 
	-7	-2	-8	54558	3649	58831	1.98	0.58	1.0000 
	7	2	8	51739	3418	55902	1.98	-0.58	1.0000 
	-7	-2	8	36495	6258	39967	1.96	-0.78	1.0000 
	-7	-2	9	261650	29541	280455	-3.99	-0.35	1.0000 
	-7	-2	-9	220660	11502	237948	-4	-0.04	1.0000 
	7	2	9	216209	11143	233325	-4	0.04	1.0000 
	-7	-2	9	257077	13056	275720	-3.99	-0.35	1.0000 
	-7	-2	10	9095	4487	16202	-6.88	-2.38	1.0000 
	-7	-2	-10	30518	2964	42790	-6.97	2.01	1.0000 
	7	2	10	25550	2584	36864	-6.97	-2.01	1.0000 
	-7	-2	10	8437	5360	15318	-6.88	-2.38	1.0000 
	-7	-2	-11	123151	14777	137314	4.33	-0.63	1.0000 
	-7	2	-11	150417	17105	159774	-2.68	3.02	1.0000 
	7	2	11	120357	14398	134363	4.33	0.63	1.0000 
	-7	-2	-11	116937	13737	130748	4.33	-0.63	1.0000 
	-2	-7	11	111146	13065	124607	4.32	0.65	1.0000 
	-2	-7	-11	114208	13861	127846	4.31	-0.81	1.0000 
	2	-7	-11	128535	14400	137233	-2.7	3.06	1.0000 
	-2	-7	12	11686	2912	13308	1.61	-0.28	1.0000 
	2	-7	-12	16477	2919	16996	0.45	0.41	1.0000 
	-7	-2	13	41726	6165	51884	-5.24	2.66	1.0000 
	-7	2	-13	47116	5661	48657	0.75	0.71	1.0000 
	7	-2	13	44966	5383	46471	0.75	-0.71	1.0000 
	-7	2	-13	42937	4832	44408	0.75	0.71	1.0000 
	2	-7	13	32568	3674	33921	0.8	-0.65	1.0000 
	-2	-7	13	37284	5036	46975	-5.27	2.47	1.0000 
	-7	-2	14	16768	4609	17918	-0.95	-0.7	1.0000 
	-7	-2	-14	14345	3823	15311	-0.87	0.46	1.0000 
	-7	2	-14	15874	5527	17579	-1.46	-0.3	1.0000 
	7	2	14	13861	4293	14810	-0.87	-0.46	1.0000 
	7	-2	14	10223	5217	11600	-1.46	0.3	1.0000 
	-7	2	-14	16458	1885	18194	-1.46	-0.3	1.0000 
	2	-7	14	18616	2906	20442	-1.45	0.31	1.0000 
	-2	-7	14	19599	3501	20840	-0.95	-0.66	1.0000 
	2	-7	-14	18893	2831	20768	-1.48	-0.23	1.0000 
	-7	-2	15	4248	759	3805	-0.88	1.2	1.0000 
	-7	2	15	3311	716	3440	-0.25	-0.26	1.0000 
	-7	-2	-15	2675	846	2320	-0.9	-1.43	1.0000 
	-7	2	-15	3074	1080	3238	-0.33	0.39	1.0000 
	7	2	15	2881	839	2514	-0.9	1.43	1.0000 
	7	-2	15	1424	1538	1535	-0.33	-0.39	1.0000 
	-7	-2	15	5361	925	4866	-0.88	1.2	1.0000 
	-7	-2	-15	3315	794	2923	-0.9	-1.43	1.0000 
	-7	2	-15	3154	761	3320	-0.33	0.39	1.0000 
	2	-7	15	3866	752	4027	-0.29	-0.15	1.0000 
	-2	-7	15	1616	1268	1368	-0.77	1.16	1.0000 
	2	-7	-15	4042	895	4195	-0.27	0.5	1.0000 
	-7	2	16	21633	5487	23895	1.67	-0.73	1.0000 
	-7	-2	-16	16795	6931	18196	1.18	0.22	1.0000 
	-7	2	-16	18524	5928	20660	1.7	0.72	1.0000 
	7	2	16	15276	6675	16614	1.18	-0.22	1.0000 
	7	-2	16	10007	6527	11589	1.7	-0.72	1.0000 
	-7	2	16	22830	5432	25153	1.67	-0.73	1.0000 
	-7	-2	-16	23165	3972	24806	1.18	0.22	1.0000 
	-7	2	-16	18702	4983	20848	1.7	0.72	1.0000 
	7	-2	-16	23012	3825	25344	1.67	0.73	1.0000 
	2	-7	16	25685	4302	28196	1.7	-0.72	1.0000 
	-2	-7	16	25255	4030	26941	1.16	-0.18	1.0000 
	2	-7	-16	27758	5616	30299	1.66	0.74	1.0000 
	-7	2	17	4113	1294	5205	-1.79	0.26	1.0000 
	-7	-2	-17	3106	1314	3722	1.19	-0.62	1.0000 
	-7	2	-17	2716	987	3576	-1.71	-0.12	1.0000 
	7	2	17	2720	1470	3297	1.19	0.62	1.0000 
	7	-2	17	1233	1264	1831	-1.71	0.12	1.0000 
	-7	2	17	4687	1340	5848	-1.79	0.26	1.0000 
	-7	-2	-17	3798	1206	4477	1.19	-0.62	1.0000 
	-7	2	-17	4020	1316	5053	-1.71	-0.12	1.0000 
	7	-2	-17	5014	1336	6213	-1.79	-0.26	1.0000 
	-2	-7	17	5201	2096	6016	1.23	0.58	1.0000 
	2	-7	-17	2130	1707	2912	-1.75	-0.25	1.0000 
	-7	2	-18	22080	5240	21015	0.82	0.72	1.0000 
	7	-2	18	10946	6306	10197	0.82	-0.72	1.0000 
	-7	2	-18	27575	2461	26385	0.82	0.72	1.0000 
	-7	-2	-18	30037	1275	28079	1.31	1.05	1.0000 
	7	-2	-18	30219	1328	28973	0.83	0.88	1.0000 
	-2	-7	18	32148	1806	30100	1.31	-0.88	1.0000 
	2	-7	-18	28739	1436	27528	0.82	0.74	1.0000 
	7	-2	-18	28366	2738	27159	0.83	0.88	1.0000 
	-7	2	-19	21317	3795	23963	1.89	-0.94	1.0000 
	-7	-2	-19	24474	4850	23133	0.93	0.84	1.0000 
	7	-2	-19	28754	3542	31798	1.88	-0.97	1.0000 
	-2	-7	19	33138	4429	31611	0.91	-0.83	1.0000 
	7	-2	-19	22752	2316	25466	1.88	-0.97	1.0000 
	-7	2	-20	13255	3730	13195	-0.07	1.29	1.0000 
	-7	-2	-20	15331	2616	13731	-1.47	0.03	1.0000 
	7	-2	-20	17797	3142	17694	-0.1	1.27	1.0000 
	2	-7	20	16153	3193	16105	-0.06	-1.42	1.0000 
	-2	-7	20	20578	3688	18751	-1.44	-0.14	1.0000 
	7	-2	-20	13894	2523	13799	-0.1	1.27	1.0000 
	-7	2	-21	40966	7976	51123	-5.3	-1.28	1.0000 
	-7	-2	-21	51096	8052	52081	0.52	-1	1.0000 
	7	-2	-21	46717	10362	57424	-5.25	-1.05	1.0000 
	2	-7	21	45741	8887	56450	-5.31	1.22	1.0000 
	-7	2	-22	2631	784	2055	1.32	-0.3	1.0000 
	-2	-7	-22	2841	880	2650	0.49	1.5	1.0000 
	-7	-2	-22	2303	1014	2123	0.5	1.58	1.0000 
	7	-2	-22	5097	2424	4304	1.28	-0.32	1.0000 
	2	-7	22	7646	1021	6643	1.32	0.3	1.0000 
	2	-7	-22	9133	1452	8066	1.28	-0.34	1.0000 
	-2	-7	-22	2205	618	2032	0.49	1.5	1.0000 
	-7	2	-23	53717	5373	56122	1.18	1.01	1.0000 
	-2	-7	-23	36613	2927	29002	4.64	0.46	1.0000 
	-7	-2	-23	66590	5237	56144	4.65	0.56	1.0000 
	7	-2	-23	55932	6193	58457	1.22	1.1	1.0000 
	2	-7	23	53997	5431	56486	1.22	-0.95	1.0000 
	-2	-7	23	74181	7938	63073	4.68	-0.65	1.0000 
	2	-7	-23	56579	7634	59035	1.18	1.15	1.0000 
	-7	2	-24	1040	705	1310	-0.87	-0.4	1.0000 
	-7	-2	-24	2693	1224	2096	1.53	1.34	1.0000 
	-2	-7	-24	2011	578	1503	1.5	1.33	1.0000 
	2	-7	-24	1462	591	1778	-0.87	-0.38	1.0000 
	7	-2	-24	3582	1672	4081	-0.89	-0.4	1.0000 
	-2	-7	24	2222	2045	1673	1.53	-1.29	1.0000 
	-2	-7	-24	2222	572	1688	1.5	1.33	1.0000 
	2	-7	-24	1905	718	2264	-0.87	-0.38	1.0000 
	-7	2	-25	56806	8210	58656	-0.87	-0.4	1.0000 
	-7	-2	-25	70168	8824	61250	-3.83	-0.68	1.0000 
	-2	-7	-25	36331	4348	30009	-3.82	-0.65	1.0000 
	7	-2	-25	64895	9595	66864	-0.87	-0.34	1.0000 
	-2	-7	-25	43954	6243	36971	-3.82	-0.65	1.0000 
	-7	2	-26	1306	573	1393	-0.26	0.27	1.0000 
	-7	-2	-26	1102	845	1488	-1.19	0.21	1.0000 
	-2	-7	-26	1014	647	1392	-1.21	0.24	1.0000 
	2	-7	-26	2022	683	2132	-0.27	0.29	1.0000 
	7	-2	-26	3853	1583	3995	-0.25	0.34	1.0000 
	2	-7	-26	3638	1079	3785	-0.27	0.29	1.0000 
	-2	-7	-26	916	451	1277	-1.21	0.24	1.0000 
	2	-7	-26	1037	441	1116	-0.27	0.29	1.0000 
	-7	-2	-27	25685	5874	30284	-3.04	0.12	1.0000 
	-7	2	-27	33399	6859	34327	0.56	-0.04	1.0000 
	-2	-7	-27	21979	5221	26237	-3.04	0.05	1.0000 
	7	-2	-27	34074	7754	34884	0.49	-0.08	1.0000 
	-2	-7	27	31034	6362	36126	-3.07	-0.17	1.0000 
	7	-2	-27	46517	8961	47463	0.49	-0.08	1.0000 
	-7	-2	-28	731	520	801	0.22	1.15	1.0000 
	-7	2	-28	2306	753	1595	-1.79	-0.12	1.0000 
	-2	-7	-28	1071	519	1161	0.22	1.17	1.0000 
	2	-7	-28	1912	566	1283	-1.75	-0.16	1.0000 
	7	-2	-28	3576	866	2678	-1.78	-0.17	1.0000 
	-2	-7	28	2504	847	2650	0.21	-1.17	1.0000 
	2	-7	-28	993	255	557	-1.75	-0.16	1.0000 
	7	-2	-28	3433	798	2555	-1.78	-0.17	1.0000 
	-7	-2	-29	9513	3293	9460	-0.11	-0.81	1.0000 
	-2	-7	-29	8801	2869	8743	-0.12	-0.81	1.0000 
	2	-7	-29	6213	2139	6846	-0.86	-0.11	1.0000 
	7	-2	-29	14266	4032	15199	-0.85	-0.12	1.0000 
	-2	-7	29	13631	3667	13546	-0.13	0.79	1.0000 
	2	-7	-29	4159	1344	4680	-0.86	-0.11	1.0000 
	7	-2	-29	15904	4181	16889	-0.85	-0.12	1.0000 
	-7	-2	-30	161	105	174	-0.05	-0.25	1.0000 
	-7	2	-30	123	85	112	0.31	-0.45	1.0000 
	-2	-7	-30	19	53	23	-0.02	-0.36	1.0000 
	2	-7	-30	34	49	24	0.34	-0.47	1.0000 
	7	-2	-30	343	262	330	0.34	-0.49	1.0000 
	-2	-7	30	104	251	113	-0.07	0.13	1.0000 
	2	-7	-30	164	86	150	0.34	-0.47	1.0000 
	7	-2	-30	290	174	277	0.34	-0.49	1.0000 
	-7	-2	-31	1119	453	1038	0.27	-0.04	1.0000 
	-7	2	-31	447	283	630	0.88	-0.26	1.0000 
	-2	-7	-31	525	208	474	0.25	0	1.0000 
	2	-7	-31	299	220	453	0.89	-0.23	1.0000 
	7	-2	-31	530	351	745	0.95	-0.19	1.0000 
	-2	-7	31	1188	489	1104	0.27	0.05	1.0000 
	2	-7	-31	145	129	257	0.89	-0.23	1.0000 
	7	-2	-31	523	333	737	0.95	-0.19	1.0000 
	-7	-2	-32	50	97	45	0.12	0.26	1.0000 
	-7	2	-32	104	85	143	-0.4	-0.19	1.0000 
	-2	-7	-32	138	84	129	0.12	0.23	1.0000 
	2	-7	-32	104	93	143	-0.41	-0.2	1.0000 
	7	-2	-32	22	253	41	-0.41	-0.24	1.0000 
	2	-7	-32	38	85	62	-0.41	-0.2	1.0000 
	7	-2	-32	471	283	551	-0.41	-0.24	1.0000 
	-7	-3	1	13424	3474	16939	-3.14	-0.53	1.0000 
	-7	-3	-5	229851	11250	233233	-0.81	-1.42	1.0000 
	-7	3	6	23836	4005	44830	-11.42	-5.78	1.0000 
	-7	3	-7	274272	29523	279885	-1.11	1.8	1.0000 
	-7	3	-7	272562	13209	278157	-1.11	1.8	1.0000 
	-7	3	-7	264377	12860	269887	-1.11	1.8	1.0000 
	-7	3	-8	13265	6491	18428	3.58	4.68	1.0000 
	-7	3	-8	21725	5090	28292	3.58	4.68	1.0000 
	-7	3	-8	21519	5622	28055	3.58	4.68	1.0000 
	3	-7	-8	12926	3855	18352	3.44	5.56	1.0000 
	-7	3	-9	248067	23155	254653	1.46	0.26	1.0000 
	-7	3	-9	226690	25923	232988	1.46	0.26	1.0000 
	-7	-3	-9	268745	23553	259216	2.11	-1.62	1.0000 
	7	3	9	258766	22608	249416	2.11	1.62	1.0000 
	-7	3	-9	237875	25855	244325	1.46	0.26	1.0000 
	-7	-3	-9	249001	25039	239829	2.11	-1.62	1.0000 
	3	-7	-9	208472	22442	214628	1.5	0.51	1.0000 
	-7	3	-10	1256	1841	6275	9.19	-3.1	1.0000 
	-7	3	-10	938	1990	5535	9.19	-3.1	1.0000 
	-7	-3	-10	858	3171	4977	9	1.67	1.0000 
	7	3	10	451	3254	3905	9	-1.67	1.0000 
	-7	3	-10	29	2704	2407	9.19	-3.1	1.0000 
	-7	-3	-10	788	2487	4808	9	1.67	1.0000 
	3	-7	-10	3920	3584	11283	9.12	-3.2	1.0000 
	-7	3	-11	149692	17427	162687	-3.67	-0.85	1.0000 
	-7	3	-11	147032	17122	159914	-3.67	-0.85	1.0000 
	-7	-3	-11	158107	17264	161048	0.84	-0.88	1.0000 
	7	3	11	149324	16265	152182	0.84	0.88	1.0000 
	-7	-3	-11	147349	15760	150188	0.84	-0.88	1.0000 
	3	-7	-11	118424	13646	129840	-3.61	-0.8	1.0000 
	-7	3	-12	968	1384	2950	3.05	4.23	1.0000 
	-7	3	-12	942	1783	2903	3.05	4.23	1.0000 
	-7	-3	-12	388	1139	2304	-2.78	5.95	1.0000 
	7	-3	12	115	1363	1129	3.05	-4.23	1.0000 
	7	3	12	272	1265	1992	-2.78	-5.95	1.0000 
	3	-7	12	337	317	1686	3.14	-4.04	1.0000 
	-3	-7	12	1259	1319	4249	-2.75	-6.21	1.0000 
	-7	-3	12	739	939	3217	-2.71	-6.22	1.0000 
	3	-7	-12	1513	965	3810	3.09	4.09	1.0000 
	-7	3	-13	68977	6550	66410	-1.13	-0.8	1.0000 
	-7	3	-13	59091	7183	56716	-1.13	-0.8	1.0000 
	-7	-3	-13	69503	6138	59937	4.13	1.96	1.0000 
	7	3	13	65500	5809	56222	4.13	-1.96	1.0000 
	-7	-3	-13	61317	4864	52349	4.13	1.96	1.0000 
	-7	3	-13	56592	5464	54268	-1.13	-0.8	1.0000 
	3	-7	13	57348	5509	54865	-1.21	1.2	1.0000 
	-7	-3	13	51790	4182	43652	4.09	-1.81	1.0000 
	-7	3	14	945	707	624	1.38	-1.66	1.0000 
	-7	3	-14	969	527	657	1.31	1.56	1.0000 
	-7	-3	-14	1006	477	1403	-1.21	1.46	1.0000 
	-7	3	-14	2013	577	1576	1.31	1.56	1.0000 
	7	-3	14	574	280	329	1.31	-1.56	1.0000 
	7	3	14	842	548	1205	-1.21	-1.46	1.0000 
	-7	3	14	937	705	617	1.38	-1.66	1.0000 
	-7	-3	14	1692	676	2208	-1.21	-1.43	1.0000 
	-7	3	-14	2372	442	1901	1.31	1.56	1.0000 
	-7	-3	-14	1606	625	2110	-1.21	1.46	1.0000 
	3	-7	14	2340	414	1849	1.4	-1.67	1.0000 
	-7	-3	14	1341	508	1800	-1.21	-1.43	1.0000 
	3	-7	-14	3490	644	2935	1.29	1.56	1.0000 
	-7	3	15	14067	3243	11613	2.4	1.3	1.0000 
	-7	-3	-15	11192	2915	8471	-3.06	0.48	1.0000 
	-7	3	-15	9983	2594	7927	2.41	-1.57	1.0000 
	7	-3	15	6553	2929	4900	2.41	1.57	1.0000 
	7	3	15	9330	3646	6862	-3.06	-0.48	1.0000 
	-7	3	15	13597	2901	11186	2.4	1.3	1.0000 
	-7	-3	15	17658	2701	14193	-3.06	-0.39	1.0000 
	-7	3	-15	12104	2529	9833	2.41	-1.57	1.0000 
	-7	-3	-15	14577	3225	11446	-3.06	0.48	1.0000 
	7	3	-15	17736	2768	14263	-3.06	0.39	1.0000 
	3	-7	15	15549	2385	12968	2.4	1.4	1.0000 
	-7	-3	15	11795	1642	8997	-3.06	-0.39	1.0000 
	-3	-7	15	16193	2954	12890	-3.05	-0.38	1.0000 
	3	-7	-15	18764	2846	15904	2.42	-1.46	1.0000 
	-7	-3	16	558	250	1057	1.98	0.46	1.0000 
	-7	3	16	1228	299	851	-1.39	1.65	1.0000 
	-7	-3	-16	311	257	694	1.94	-0.26	1.0000 
	-7	3	-16	976	403	642	-1.4	-1.88	1.0000 
	7	-3	16	673	297	388	-1.4	1.88	1.0000 
	7	3	16	267	253	628	1.94	0.26	1.0000 
	-7	-3	16	503	195	980	1.98	0.46	1.0000 
	-7	3	16	1390	307	991	-1.39	1.65	1.0000 
	-7	-3	-16	495	263	959	1.94	-0.26	1.0000 
	-7	3	-16	1234	188	864	-1.4	-1.88	1.0000 
	7	3	-16	691	267	1237	1.98	-0.46	1.0000 
	3	-7	16	1634	278	1214	-1.38	1.75	1.0000 
	-7	-3	16	320	147	715	1.98	0.46	1.0000 
	-3	-7	16	660	272	1189	1.95	0.35	1.0000 
	3	-7	-16	1672	292	1239	-1.42	-1.81	1.0000 
	7	-3	-16	1590	238	1165	-1.39	-1.65	1.0000 
	-7	3	17	79	236	182	1.13	1.64	1.0000 
	-7	-3	17	166	144	113	-4.88	-0.42	1.0000 
	-7	3	-17	66	185	152	1.09	-1.89	1.0000 
	7	-3	17	97	96	-9	1.09	1.89	1.0000 
	-7	-3	17	124	185	171	-4.88	-0.42	1.0000 
	-7	3	17	40	97	86	1.13	1.64	1.0000 
	-7	-3	-17	174	112	100	-4.84	0.36	1.0000 
	-7	3	-17	63	145	145	1.09	-1.89	1.0000 
	7	3	-17	77	141	312	-4.88	0.42	1.0000 
	3	-7	17	116	141	252	1.11	1.75	1.0000 
	-3	-7	17	120	132	180	-4.85	-0.49	1.0000 
	-7	-3	17	194	61	87	-4.88	-0.42	1.0000 
	3	-7	-17	143	182	305	1.13	-1.77	1.0000 
	7	-3	-17	203	146	393	1.13	-1.64	1.0000 
	-7	-3	-18	2868	1203	2928	-0.11	-0.67	1.0000 
	-7	3	-18	3865	1030	3069	1.5	-0.19	1.0000 
	7	3	-18	4559	1407	4634	-0.1	-0.7	1.0000 
	3	-7	18	6052	1488	5043	1.5	0.13	1.0000 
	-3	-7	18	4752	1434	4826	-0.1	0.62	1.0000 
	-7	-3	18	2605	756	2660	-0.1	0.7	1.0000 
	3	-7	-18	5920	1405	4934	1.49	-0.32	1.0000 
	7	-3	-18	5472	1227	4532	1.48	-0.24	1.0000 
	-7	-3	-19	4754	2011	5619	-1.38	-0.56	1.0000 
	-7	3	-19	6942	1568	5056	-2.66	-0.91	1.0000 
	7	3	-19	6808	1596	7815	-1.34	-0.35	1.0000 
	7	-3	-19	9642	1686	7383	-2.67	-0.9	1.0000 
	-7	-3	19	3730	1274	4483	-1.34	0.35	1.0000 
	-3	-7	19	7132	1738	8191	-1.38	0.37	1.0000 
	7	-3	-19	9375	1283	7149	-2.67	-0.9	1.0000 
	-7	-3	-20	3300	1129	3192	-0.23	-1.11	1.0000 
	-7	3	-20	3257	1081	2927	-0.66	-0.35	1.0000 
	-3	-7	-20	2333	779	2232	-0.25	-1.1	1.0000 
	7	3	-20	5540	1471	5407	-0.24	-1.14	1.0000 
	7	-3	-20	5243	1534	4803	-0.69	-0.52	1.0000 
	-7	-3	20	3108	831	3001	-0.24	1.14	1.0000 
	7	-3	-20	4649	1362	4235	-0.69	-0.52	1.0000 
	-7	-3	-21	25804	3010	24762	-0.81	-0.99	1.0000 
	-7	3	-21	14926	3516	11319	3.41	1.69	1.0000 
	-3	-7	-21	13139	3498	12428	-0.77	-0.99	1.0000 
	7	3	-21	28817	4151	27759	-0.78	-0.96	1.0000 
	7	-3	-21	36401	3445	30536	3.49	1.74	1.0000 
	-7	-3	21	15536	2463	14756	-0.78	0.96	1.0000 
	7	-3	-21	30654	3225	25289	3.49	1.74	1.0000 
	-7	-3	-22	2498	960	2031	1.09	-0.17	1.0000 
	-7	3	-22	58	108	145	-1.08	-0.8	1.0000 
	-3	-7	-22	1934	596	1526	1.09	-0.14	1.0000 
	7	3	-22	3184	1440	2652	1.09	-0.19	1.0000 
	-3	-7	22	4681	1426	4027	1.1	0.2	1.0000 
	7	-3	-22	1812	913	2268	-1.09	-0.78	1.0000 
	-7	-3	-23	35687	6005	38388	-1.62	-1.2	1.0000 
	-7	3	-23	41235	7023	40487	-0.39	-0.49	1.0000 
	-3	-7	-23	28449	5471	30862	-1.62	-1.26	1.0000 
	7	3	-23	46516	6847	49674	-1.65	-1.18	1.0000 
	-3	-7	23	46507	8738	49674	-1.66	1.13	1.0000 
	3	-7	-23	50727	8574	49947	-0.36	-0.45	1.0000 
	7	-3	-23	31969	5292	31398	-0.33	-0.48	1.0000 
	-7	-3	-24	392	483	580	-0.94	0.16	1.0000 
	-7	3	-24	234	137	322	1.31	2.89	1.0000 
	-3	-7	-24	163	211	297	-0.98	0.2	1.0000 
	7	3	-24	1831	798	2222	-0.96	0.08	1.0000 
	-3	-7	24	1874	1245	2255	-0.93	0.01	1.0000 
	3	-7	-24	1132	979	1674	1.37	3.12	1.0000 
	3	-7	-24	256	214	400	1.37	3.12	1.0000 
	-7	-3	-25	40232	9069	45235	2.72	0.75	1.0000 
	-7	3	-25	41768	8899	39730	1.11	0.09	1.0000 
	-3	-7	-25	39257	7467	44100	2.66	0.71	1.0000 
	3	-7	-25	38093	7253	36183	1.09	0.08	1.0000 
	7	3	-25	50263	11132	55646	2.63	0.83	1.0000 
	3	-7	-25	53566	10425	51297	1.09	0.08	1.0000 
	-7	-3	-26	3855	1579	3739	0.23	0.53	1.0000 
	-7	3	-26	2472	916	2845	-0.8	0.06	1.0000 
	-3	-7	-26	3025	1000	2919	0.24	0.54	1.0000 
	3	-7	-26	2721	1009	3107	-0.79	0.13	1.0000 
	7	3	-26	997	2089	938	0.22	0.44	1.0000 
	3	-7	-26	5078	1639	5600	-0.79	0.13	1.0000 
	3	-7	-26	1579	696	1876	-0.79	0.13	1.0000 
	7	-3	-26	3538	1787	3980	-0.8	0.09	1.0000 
	-7	-3	-27	24112	7035	25995	-1.33	-0.19	1.0000 
	-7	3	-27	24874	6470	24295	-0.4	-0.15	1.0000 
	-3	-7	-27	20154	5809	21914	-1.36	-0.19	1.0000 
	3	-7	-27	15788	4193	15355	-0.38	-0.09	1.0000 
	7	3	-27	30532	8660	32720	-1.38	-0.23	1.0000 
	7	-3	-27	34462	9007	33831	-0.38	-0.06	1.0000 
	-3	-7	27	28609	8220	30690	-1.35	0.22	1.0000 
	3	-7	-27	22273	6057	21759	-0.38	-0.09	1.0000 
	3	-7	-27	9436	3901	9102	-0.38	-0.09	1.0000 
	7	3	-27	27024	7267	29085	-1.38	-0.23	1.0000 
	7	-3	-27	34633	8495	34000	-0.38	-0.06	1.0000 
	-7	-3	-28	3134	1107	3061	-0.19	-0.88	1.0000 
	-7	3	-28	3461	1070	3268	-0.41	-0.83	1.0000 
	-3	-7	-28	3421	1100	3346	-0.19	-0.87	1.0000 
	3	-7	-28	3343	1031	3145	-0.43	-0.84	1.0000 
	7	3	-28	5722	1784	5639	-0.18	-0.96	1.0000 
	7	-3	-28	4017	1886	3796	-0.44	-0.91	1.0000 
	3	-7	-28	2165	593	2003	-0.43	-0.84	1.0000 
	7	-3	-28	7953	2178	7649	-0.44	-0.91	1.0000 
	7	3	-28	6498	1896	6410	-0.18	-0.96	1.0000 
	-7	-3	-29	9134	2817	9642	0.6	0.63	1.0000 
	-7	3	-29	3525	1171	3230	0.6	-0.89	1.0000 
	-3	-7	-29	5132	1800	5492	0.57	0.62	1.0000 
	3	-7	-29	3785	1087	3479	0.6	-0.85	1.0000 
	7	3	-29	8258	2658	8701	0.56	0.63	1.0000 
	7	-3	-29	10767	2878	10275	0.58	-0.82	1.0000 
	3	-7	-29	2838	736	2571	0.6	-0.85	1.0000 
	7	-3	-29	9384	2454	8924	0.58	-0.82	1.0000 
	7	3	-29	8586	2546	9038	0.56	0.63	1.0000 
	-7	-3	-30	2252	796	2350	-0.22	0.19	1.0000 
	-7	3	-30	1527	459	1189	1.01	-0.49	1.0000 
	-3	-7	-30	1478	543	1558	-0.22	0.23	1.0000 
	3	-7	-30	1782	487	1415	1.01	-0.5	1.0000 
	7	3	-30	2428	778	2522	-0.2	0.14	1.0000 
	7	-3	-30	3464	921	2951	1	-0.53	1.0000 
	-3	-7	30	1949	646	2035	-0.21	-0.1	1.0000 
	3	-7	-30	1059	339	780	1.01	-0.5	1.0000 
	7	3	-30	2196	696	2286	-0.2	0.14	1.0000 
	7	-3	-30	3640	955	3114	1	-0.53	1.0000 
	-7	-3	-31	29	90	31	-0.03	0.8	1.0000 
	-7	3	-31	62	77	115	0.64	-0.25	1.0000 
	-3	-7	-31	14	102	-17	-0.03	0.83	1.0000 
	3	-7	-31	9	90	-33	0.62	-0.25	1.0000 
	7	-3	-31	27	121	61	0.6	-0.23	1.0000 
	7	3	-31	194	123	228	-0.07	0.84	1.0000 
	-3	-7	31	14	90	9	-0.07	-0.82	1.0000 
	7	-3	-31	171	215	249	0.6	-0.23	1.0000 
	7	3	-31	189	130	222	-0.07	0.84	1.0000 
	-4	-7	3	18843	1531	27222	6.17	-1.22	1.0000 
	-7	-4	4	21873	3606	28512	4.65	-0.14	1.0000 
	-7	-4	4	21508	3706	28095	4.65	-0.14	1.0000 
	-7	-4	4	22767	3776	29532	4.65	-0.14	1.0000 
	-4	-7	4	24025	3360	30907	4.61	-0.1	1.0000 
	-4	-7	5	48069	6288	59182	-5.33	0.25	1.0000 
	4	-7	-5	59146	6653	62542	1.55	-0.88	1.0000 
	-7	4	-6	23920	3057	18094	4.52	1.15	1.0000 
	-7	4	-6	22343	3053	16725	4.52	1.15	1.0000 
	-7	4	-6	26208	5265	20093	4.52	1.15	1.0000 
	-4	-7	6	22535	2716	17662	3.97	2.95	1.0000 
	-7	4	-7	87404	10403	95521	-2.86	2.22	1.0000 
	-7	4	-7	88676	10535	96851	-2.86	2.22	1.0000 
	-7	4	-7	85596	10203	93630	-2.86	2.22	1.0000 
	-7	-4	-7	100101	10377	94211	-2.05	-2.97	1.0000 
	-4	-7	7	84904	8383	79439	-2.06	3.19	1.0000 
	-7	4	-8	15631	3361	13049	-2.49	-1.78	1.0000 
	-7	-4	-8	16165	2742	12935	-2.97	0.04	1.0000 
	-7	4	-8	9281	4374	7301	-2.49	-1.78	1.0000 
	-7	-4	-8	13365	3112	10444	-2.97	0.04	1.0000 
	7	4	8	10223	4351	7691	-2.97	-0.04	1.0000 
	-7	4	-8	16566	3416	13907	-2.49	-1.78	1.0000 
	-7	-4	8	14724	1379	11636	-2.99	-0.33	1.0000 
	-7	-4	-8	13320	2472	10404	-2.97	0.04	1.0000 
	-7	4	-9	90489	8838	92993	0.94	0.92	1.0000 
	-7	-4	-9	90872	8674	91033	-0.06	0	1.0000 
	-7	4	-9	79297	9712	81641	0.94	0.92	1.0000 
	-7	-4	-9	91901	8752	92063	-0.06	0	1.0000 
	7	4	9	93689	8856	93853	-0.06	0	1.0000 
	-7	4	-9	80590	9743	82953	0.94	0.92	1.0000 
	-7	-4	-9	91259	8297	91421	-0.06	0	1.0000 
	-7	4	-10	1128	980	2004	-2.49	0.15	1.0000 
	-7	4	-10	1072	1247	1930	-2.49	0.15	1.0000 
	-7	-4	-10	2068	2853	1972	1.12	-1.64	1.0000 
	7	4	10	793	1428	703	1.12	1.64	1.0000 
	-7	-4	-10	955	1463	864	1.12	-1.64	1.0000 
	4	-7	-10	6371	2266	8312	-2.52	0.27	1.0000 
	-7	4	-11	62642	9088	54104	3.88	-2.51	1.0000 
	-7	-4	-11	67583	7888	53387	-6.4	-0.16	1.0000 
	7	4	11	67570	7839	53376	-6.4	0.16	1.0000 
	-7	4	-11	69703	8636	60686	3.88	-2.51	1.0000 
	-7	-4	-11	64666	7248	50798	-6.4	-0.16	1.0000 
	-7	-4	11	62917	7005	49303	-6.38	-0.19	1.0000 
	4	-7	-11	60764	7476	52345	3.89	-2.36	1.0000 
	-7	4	-12	2547	986	4161	-3.14	-0.8	1.0000 
	-7	4	-12	1291	815	2492	-3.14	-0.8	1.0000 
	-7	-4	12	4444	1320	6321	-2.86	1.09	1.0000 
	4	-7	-12	6105	2284	8532	-3.17	-0.76	1.0000 
	-7	-4	13	33067	5839	27823	3.46	-2	1.0000 
	-7	4	13	34591	5942	23130	-7.49	0.96	1.0000 
	-7	4	-13	29280	5932	18834	-7.48	-0.86	1.0000 
	-7	4	-13	24639	5686	15151	-7.48	-0.86	1.0000 
	-7	-4	-13	24233	5561	19644	3.52	1.57	1.0000 
	7	4	13	16975	6761	13163	3.52	-1.57	1.0000 
	-7	4	13	35093	5435	23541	-7.49	0.96	1.0000 
	-7	4	-13	35629	5080	23989	-7.48	-0.86	1.0000 
	-7	4	-13	26043	4608	16256	-7.48	-0.86	1.0000 
	7	-4	-13	36974	5030	25087	-7.49	-0.96	1.0000 
	-7	-4	13	28106	4114	23281	3.46	-2	1.0000 
	-7	-4	14	11619	2741	9754	-1.98	-1.55	1.0000 
	-7	4	14	11658	2253	9190	-2.69	0.02	1.0000 
	-7	4	-14	9427	2029	7179	-2.74	0.07	1.0000 
	-7	4	-14	7371	1964	5401	-2.74	0.07	1.0000 
	-7	-4	-14	9164	2252	7465	-2.05	1.78	1.0000 
	7	4	14	6673	2789	5227	-2.05	-1.78	1.0000 
	-7	4	14	12994	2334	10380	-2.69	0.02	1.0000 
	-7	4	-14	3875	2590	2489	-2.74	0.07	1.0000 
	-7	4	-14	9093	1805	6888	-2.74	0.07	1.0000 
	7	-4	-14	13913	1726	11203	-2.69	-0.02	1.0000 
	-7	-4	14	11143	1849	9317	-1.98	-1.55	1.0000 
	4	-7	-14	14979	2300	12146	-2.7	0.03	1.0000 
	-7	4	15	5714	1791	5765	-0.07	-0.3	1.0000 
	-7	-4	15	6247	971	6771	0.65	-1.4	1.0000 
	-7	-4	15	5997	1903	6510	0.65	-1.4	1.0000 
	-7	4	15	5710	1882	5761	-0.07	-0.3	1.0000 
	-7	4	-15	3794	1341	3826	-0.03	0.78	1.0000 
	-4	-7	15	9150	1289	9751	0.61	-1.39	1.0000 
	4	-7	-15	8269	1333	8330	-0.05	0.54	1.0000 
	-7	4	-16	4878	2528	9407	-5.98	1	1.0000 
	-4	-7	16	240606	65976	265032	-5.22	-2.2	1.0000 
	4	-7	-16	17211	2573	25064	-5.97	0.9	1.0000 
	7	-4	-16	16728	2596	24527	-6.01	0.83	1.0000 
	-7	4	-17	125	82	105	0.17	-0.33	1.0000 
	7	4	-17	814	175	545	-1.16	-1.14	1.0000 
	7	-4	-17	466	174	435	0.13	-0.55	1.0000 
	-7	-4	17	433	100	237	-1.16	1.14	1.0000 
	-4	-7	17	827	217	550	-1.17	1.03	1.0000 
	4	-7	-17	426	161	391	0.16	-0.33	1.0000 
	7	-4	-17	553	228	520	0.13	-0.55	1.0000 
	-7	-4	-18	7871	2560	6418	-1.9	0.15	1.0000 
	-7	4	-18	6115	1717	4947	-1.71	1.45	1.0000 
	7	4	-18	11119	1724	9407	-1.88	-0.07	1.0000 
	7	-4	-18	11103	1890	9533	-1.7	1.31	1.0000 
	-7	-4	18	9379	1473	7812	-1.88	0.07	1.0000 
	4	-7	-18	13094	2127	11410	-1.68	1.47	1.0000 
	7	-4	-18	11988	1808	10356	-1.7	1.31	1.0000 
	-7	4	-19	2631	1358	2953	0.69	0.13	1.0000 
	-7	-4	-19	5367	2067	4720	1.05	-0.75	1.0000 
	-4	-7	-19	3142	1199	2643	1.07	-0.8	1.0000 
	7	4	-19	5449	2235	4821	1.02	-0.8	1.0000 
	7	-4	-19	6154	1461	6619	0.66	0.28	1.0000 
	-7	-4	19	6315	1548	5638	1.02	0.8	1.0000 
	4	-7	-19	7890	1688	8414	0.66	0.27	1.0000 
	7	-4	-19	7195	1436	7697	0.66	0.28	1.0000 
	-7	-4	-20	2550	627	1824	1.88	1.14	1.0000 
	-7	4	-20	793	343	646	0.62	0.22	1.0000 
	-4	-7	-20	1603	449	1036	1.87	1.16	1.0000 
	7	4	-20	2913	664	2142	1.83	0.94	1.0000 
	7	-4	-20	2680	784	2399	0.63	0.15	1.0000 
	-7	-4	20	2523	647	1807	1.83	-0.94	1.0000 
	-4	-7	20	4218	1078	3279	1.83	-0.93	1.0000 
	7	-4	-20	2716	705	2433	0.63	0.15	1.0000 
	-7	-4	-21	15239	2727	18039	2.43	0.49	1.0000 
	-7	4	-21	8221	3039	7138	1.33	0.95	1.0000 
	-4	-7	-21	8608	2642	10734	2.42	0.45	1.0000 
	7	-4	-21	20944	3658	19303	1.25	0.96	1.0000 
	7	4	-21	17690	3277	20634	2.38	0.57	1.0000 
	-7	-4	21	12893	2331	15422	2.38	-0.57	1.0000 
	-4	-7	21	18751	3489	21804	2.4	-0.61	1.0000 
	7	-4	-21	21868	2425	20191	1.25	0.96	1.0000 
	-7	-4	-22	31	143	156	1.21	-1.84	1.0000 
	-7	4	-22	3	107	66	1.46	-0.59	1.0000 
	-4	-7	-22	19	92	99	1.22	-1.78	1.0000 
	7	4	-22	192	186	512	1.23	-2.01	1.0000 
	-7	-4	22	162	173	459	1.23	2.01	1.0000 
	-4	-7	22	452	358	929	1.21	2.07	1.0000 
	7	-4	-22	915	476	1396	1.51	-0.5	1.0000 
	-7	-4	-23	17956	4097	22932	-3.91	-1.11	1.0000 
	-7	4	-23	8186	4051	8064	-0.17	0.53	1.0000 
	-4	-7	-23	10442	4527	14277	-3.88	-1.05	1.0000 
	7	4	-23	20969	4745	26273	-3.87	-0.91	1.0000 
	-7	-4	23	11661	5700	15686	-3.87	0.91	1.0000 
	-4	-7	23	21220	5087	26575	-3.88	0.98	1.0000 
	4	-7	-23	29178	4521	28898	-0.21	0.51	1.0000 
	7	-4	-23	22108	3654	21837	-0.22	0.42	1.0000 
	-7	-4	-24	22	289	444	-2.51	-2.66	1.0000 
	-7	4	-24	17	127	96	1.12	-2.88	1.0000 
	-4	-7	-24	13	142	166	-2.51	-2.6	1.0000 
	7	4	-24	120	300	753	-2.49	-2.7	1.0000 
	-4	-7	24	215	508	984	-2.5	2.74	1.0000 
	-7	-4	24	39	213	516	-2.49	2.7	1.0000 
	4	-7	-24	522	520	1360	1.11	-2.91	1.0000 
	7	-4	-24	186	300	776	1.12	-2.94	1.0000 
	-7	-4	-25	15613	4107	15243	-0.32	0.23	1.0000 
	-7	4	-25	5883	2461	4351	2.35	0.66	1.0000 
	-4	-7	-25	10945	3875	10683	-0.26	0.3	1.0000 
	4	-7	-25	11353	2802	9195	2.34	0.6	1.0000 
	7	4	-25	20843	4161	20498	-0.25	0.41	1.0000 
	-7	-4	25	9859	2843	9621	-0.25	-0.41	1.0000 
	4	-7	-25	23649	4286	20486	2.34	0.6	1.0000 
	7	4	-25	17491	3304	17175	-0.25	0.41	1.0000 
	-7	-4	-26	5295	1454	4155	1.83	-0.8	1.0000 
	-7	4	-26	2890	874	2343	1.18	-0.11	1.0000 
	-4	-7	-26	4798	1228	3717	1.83	-0.77	1.0000 
	4	-7	-26	4775	1220	4078	1.16	-0.07	1.0000 
	7	4	-26	6553	1547	5268	1.85	-0.9	1.0000 
	-7	-4	26	3126	706	2256	1.85	0.9	1.0000 
	4	-7	-26	6068	1582	5279	1.16	-0.07	1.0000 
	4	-7	-26	2315	545	1838	1.16	-0.07	1.0000 
	7	4	-26	5293	1184	4144	1.85	-0.9	1.0000 
	-4	-7	-27	6033	2091	6389	-0.51	-0.16	1.0000 
	-7	-4	-27	6003	2161	6357	-0.51	-0.23	1.0000 
	-7	4	-27	3399	1159	2996	-0.77	-0.43	1.0000 
	7	4	-27	8340	2658	8766	-0.52	-0.09	1.0000 
	-4	-7	27	8738	3909	9169	-0.51	0.17	1.0000 
	4	-7	-27	7449	2185	6863	-0.75	-0.43	1.0000 
	7	4	-27	8278	2471	8702	-0.52	-0.09	1.0000 
	-4	-7	-28	6117	1950	6099	-0.01	0.35	1.0000 
	-7	-4	-28	10495	3312	10485	0	0.32	1.0000 
	4	-7	-28	2360	1005	2633	0.61	0	1.0000 
	7	4	-28	9853	2904	9830	-0.02	0.35	1.0000 
	-4	-7	28	9558	2723	9541	-0.01	-0.33	1.0000 
	4	-7	-28	5387	1816	5796	0.61	0	1.0000 
	7	4	-28	8473	2382	8451	-0.02	0.35	1.0000 
	-4	-7	-29	1503	388	986	-1.66	-0.24	1.0000 
	-7	-4	-29	2336	538	1675	-1.67	-0.3	1.0000 
	4	-7	-29	824	392	874	-0.19	-0.01	1.0000 
	7	4	-29	2462	535	1788	-1.64	-0.15	1.0000 
	-4	-7	29	2465	538	1783	-1.67	0.23	1.0000 
	4	-7	-29	540	273	581	-0.19	-0.01	1.0000 
	7	4	-29	1891	386	1307	-1.64	-0.15	1.0000 
	-4	-7	-30	4409	1570	4054	0.59	-0.45	1.0000 
	-7	-4	-30	9986	2906	9450	0.59	-0.47	1.0000 
	7	4	-30	9214	2523	8696	0.59	-0.43	1.0000 
	7	4	-30	5958	2797	5542	0.59	-0.43	1.0000 
	-7	5	0	149298	12117	130580	-5.55	0.09	1.0000 
	-7	5	0	147038	11920	128467	-5.55	0.09	1.0000 
	-7	5	-1	259	831	3932	10.32	-0.05	1.0000 
	-7	5	1	177	1174	3529	10.19	0.54	1.0000 
	-7	5	1	496	1190	4672	10.19	0.54	1.0000 
	-7	5	-1	431	786	4540	10.32	-0.05	1.0000 
	5	-7	1	167	844	3551	10.33	0.01	1.0000 
	5	-7	-1	212	887	3671	10.18	-0.57	1.0000 
	-7	-5	2	55992	6515	54276	0.8	0.54	1.0000 
	-7	5	-2	50733	5057	51259	-0.27	-0.56	1.0000 
	-5	-7	2	58441	5231	56677	0.8	0.69	1.0000 
	5	-7	2	55406	5159	55997	-0.29	0.33	1.0000 
	-5	-7	3	2541	1531	4029	-1.57	3.28	1.0000 
	5	-7	3	409	522	1703	0.62	6.03	1.0000 
	-7	5	4	22566	2670	23315	0.55	-0.08	1.0000 
	-5	-7	4	22689	2044	20877	-1.34	-1.18	1.0000 
	5	-7	4	18599	3341	19313	0.57	0.03	1.0000 
	-7	5	5	3	183	307	3.6	-0.66	1.0000 
	-7	-5	-5	201	268	562	-1.49	2.35	1.0000 
	-7	-5	-5	375	226	859	-1.49	2.35	1.0000 
	-7	-5	-5	69	237	273	-1.49	2.35	1.0000 
	-7	-5	5	809	556	1663	-1.16	-3.27	1.0000 
	-5	-7	5	639	416	1430	-1.17	-3.37	1.0000 
	5	-7	5	297	303	1162	3.72	-0.47	1.0000 
	5	-7	-5	1202	838	2610	3.62	0.47	1.0000 
	-7	5	6	8044	1890	7048	1.34	1.88	1.0000 
	-7	-5	6	9867	1518	7747	2.52	1.15	1.0000 
	-7	-5	-6	10193	1532	8154	2.42	-1.59	1.0000 
	-7	5	6	8244	1406	7236	1.34	1.88	1.0000 
	-7	-5	-6	9616	1334	7637	2.42	-1.59	1.0000 
	-7	-5	6	7184	1192	5390	2.52	1.15	1.0000 
	7	-5	-6	5726	884	4879	1.34	-1.88	1.0000 
	-7	-5	6	8398	1354	6450	2.52	1.15	1.0000 
	5	-7	6	5587	854	4756	1.32	1.72	1.0000 
	5	-7	-6	7734	1191	6788	1.28	-1.69	1.0000 
	-7	5	7	1376	257	1064	0.99	0.2	1.0000 
	-7	-5	7	1403	296	1177	-0.79	-1.47	1.0000 
	-7	-5	-7	1420	322	1183	-0.79	1.16	1.0000 
	-7	-5	-7	753	619	576	-0.79	1.16	1.0000 
	-7	5	7	1671	383	1326	0.99	0.2	1.0000 
	-7	-5	-7	1849	375	1581	-0.79	1.16	1.0000 
	7	-5	-7	1413	314	1097	0.99	-0.2	1.0000 
	-7	-5	7	1876	429	1620	-0.79	-1.47	1.0000 
	5	-7	7	1490	310	1172	0.96	0.3	1.0000 
	5	-7	-7	2633	501	2223	0.92	-0.41	1.0000 
	-7	5	8	811	297	849	0.11	-0.52	1.0000 
	-7	-5	8	1174	262	1055	-1.35	2.47	1.0000 
	-7	-5	-8	1288	321	1181	-1.42	-2.57	1.0000 
	-7	-5	-8	937	232	818	-1.42	-2.57	1.0000 
	-7	-5	8	1111	249	991	-1.35	2.47	1.0000 
	-7	5	8	759	222	795	0.11	-0.52	1.0000 
	-7	-5	-8	640	290	509	-1.42	-2.57	1.0000 
	-7	-5	-8	902	260	782	-1.42	-2.57	1.0000 
	7	5	-8	1123	202	1003	-1.35	-2.47	1.0000 
	7	-5	-8	859	180	898	0.11	0.52	1.0000 
	-7	-5	8	905	222	780	-1.35	2.47	1.0000 
	-5	-7	8	945	225	825	-1.33	2.47	1.0000 
	5	-7	-8	1090	263	1140	0.08	0.85	1.0000 
	-7	-5	9	3978	594	3024	1.79	0.25	1.0000 
	-7	5	9	3839	588	1863	-4.16	0.46	1.0000 
	-7	-5	-9	3550	536	2577	1.95	-0.13	1.0000 
	-7	-5	-9	2779	540	1927	1.95	-0.13	1.0000 
	-7	5	9	4915	622	2633	-4.16	0.46	1.0000 
	-7	-5	9	4261	667	3271	1.79	0.25	1.0000 
	-7	-5	-9	1976	751	1270	1.95	-0.13	1.0000 
	-7	-5	-9	3360	582	2415	1.95	-0.13	1.0000 
	7	5	-9	4518	666	3497	1.79	-0.25	1.0000 
	7	-5	-9	4708	524	2482	-4.16	-0.46	1.0000 
	-5	-7	9	3822	738	2859	1.85	0.14	1.0000 
	5	-7	-9	6790	787	4019	-4.21	-0.44	1.0000 
	-7	-5	10	528	166	614	-1.78	1.48	1.0000 
	-7	5	10	235	163	407	0.57	-2.11	1.0000 
	-7	-5	-10	442	198	565	-1.84	-1.69	1.0000 
	-7	-5	-10	193	160	223	-1.84	-1.69	1.0000 
	7	5	10	204	312	240	-1.84	1.69	1.0000 
	-7	5	10	408	190	651	0.57	-2.11	1.0000 
	-7	-5	10	456	123	528	-1.78	1.48	1.0000 
	-7	-5	-10	453	183	579	-1.84	-1.69	1.0000 
	7	-5	-10	231	99	401	0.57	2.11	1.0000 
	7	5	-10	477	116	553	-1.78	-1.48	1.0000 
	-5	-7	10	458	134	539	-1.85	1.49	1.0000 
	7	-5	-10	442	194	697	0.57	2.11	1.0000 
	-7	-5	11	4007	918	4580	0.97	0.12	1.0000 
	-7	5	11	4182	890	3404	1.41	-0.86	1.0000 
	-7	-5	-11	3429	764	3955	0.96	-0.06	1.0000 
	-7	-5	-11	2319	1026	2755	0.96	-0.06	1.0000 
	7	5	11	1629	1507	1997	0.96	0.06	1.0000 
	-7	5	11	5441	978	4550	1.41	-0.86	1.0000 
	-7	-5	11	4424	967	5025	0.97	0.12	1.0000 
	-7	-5	-11	3770	1001	4321	0.96	-0.06	1.0000 
	7	-5	-11	5310	853	4430	1.41	0.86	1.0000 
	7	5	-11	4695	977	5313	0.97	-0.12	1.0000 
	-5	-7	11	4478	1128	5079	0.96	0	1.0000 
	7	-5	-11	8338	1384	7229	1.41	0.86	1.0000 
	5	-7	-11	7964	1218	6858	1.44	0.87	1.0000 
	-7	-5	12	3407	760	2374	2.17	1.88	1.0000 
	-7	5	12	2302	683	1857	1.07	1.86	1.0000 
	-7	-5	-12	1575	872	890	2.15	-2.1	1.0000 
	-7	-5	-12	2565	847	1691	2.15	-2.1	1.0000 
	7	5	12	1887	778	1137	2.15	2.1	1.0000 
	-7	5	12	2947	749	2450	1.07	1.86	1.0000 
	-7	-5	12	3590	823	2529	2.17	1.88	1.0000 
	-7	-5	-12	3759	905	2703	2.15	-2.1	1.0000 
	7	-5	-12	3101	787	2593	1.07	-1.86	1.0000 
	7	5	-12	3861	907	2760	2.17	-1.88	1.0000 
	-5	-7	12	3293	739	2299	2.14	1.96	1.0000 
	7	-5	-12	3577	1197	3035	1.07	-1.86	1.0000 
	5	-7	-12	4775	1184	4119	1.11	-1.69	1.0000 
	-7	5	13	254	1065	2790	14.38	-3.68	1.0000 
	-7	5	13	136	1029	3375	14.38	-3.68	1.0000 
	7	-5	-13	93	1082	3752	14.38	3.68	1.0000 
	-7	-5	13	67	1174	3873	-13.02	3.77	1.0000 
	-5	-7	13	151161	50278	201932	-13.01	3.79	1.0000 
	5	-7	-13	259505	82500	331448	14.39	3.36	1.0000 
	7	-5	-13	102	1530	5288	14.38	3.68	1.0000 
	-7	-5	-14	5614	1888	6592	1.4	0.12	1.0000 
	7	-5	-14	6589	884	6802	0.15	-1.24	1.0000 
	-7	-5	14	6039	1106	7003	1.35	-0.42	1.0000 
	-5	-7	14	6188	1280	7185	1.37	-0.29	1.0000 
	5	-7	-14	6351	1918	6582	0.21	-1.08	1.0000 
	7	-5	-14	7534	987	7764	0.15	-1.24	1.0000 
	-7	-5	-15	2071	615	1979	-0.27	-0.84	1.0000 
	7	5	-15	2129	562	2008	-0.33	-0.78	1.0000 
	7	-5	-15	1794	532	1925	-0.01	2.49	1.0000 
	-7	-5	15	1031	732	944	-0.33	0.78	1.0000 
	5	-7	-15	2651	841	2845	-0.06	2.38	1.0000 
	7	-5	-15	2492	772	2669	-0.01	2.49	1.0000 
	-7	-5	-16	14502	2453	14834	-0.34	-1.77	1.0000 
	7	5	-16	13658	2802	13981	-0.34	-1.77	1.0000 
	7	-5	-16	15112	2708	14117	0.92	0.04	1.0000 
	-7	-5	16	12104	2525	12404	-0.34	1.77	1.0000 
	5	-7	-16	18768	3306	17680	0.9	0.08	1.0000 
	-5	-7	-17	23	57	83	2.99	0.68	1.0000 
	7	5	-17	0	91	199	3.01	0.69	1.0000 
	7	-5	-17	0	103	187	-2.95	-0.11	1.0000 
	-7	-5	17	2	134	239	3.01	-0.69	1.0000 
	-5	-7	17	80	245	523	3.01	-0.68	1.0000 
	5	-7	-17	202	283	756	-2.94	-0.11	1.0000 
	-5	-7	-18	2367	786	1712	-1.56	0.76	1.0000 
	-7	-5	-18	3811	942	2967	-1.57	0.69	1.0000 
	7	5	-18	4211	1008	3324	-1.56	0.64	1.0000 
	7	-5	-18	4700	1157	3809	-1.6	-0.56	1.0000 
	-7	-5	18	4049	971	3180	-1.56	-0.64	1.0000 
	-5	-7	18	4402	1168	3489	-1.57	-0.59	1.0000 
	5	-7	-18	4851	1198	3906	-1.67	-0.56	1.0000 
	7	-5	-18	5470	1305	4506	-1.6	-0.56	1.0000 
	-5	-7	-19	244	158	410	-0.75	1.74	1.0000 
	-7	-5	-19	99	119	186	-0.74	1.71	1.0000 
	7	-5	-19	262	192	519	1.45	-0.73	1.0000 
	7	5	-19	359	181	562	-0.73	1.74	1.0000 
	-5	-7	19	347	267	547	-0.73	-1.73	1.0000 
	-7	-5	19	396	212	611	-0.73	-1.74	1.0000 
	5	-7	-19	306	234	588	1.48	-0.78	1.0000 
	7	-5	-19	372	245	671	1.45	-0.73	1.0000 
	-5	-7	-20	63	51	81	3.24	1.35	1.0000 
	-7	-5	-20	64	190	440	3.23	1.42	1.0000 
	7	-5	-20	35	154	339	3.14	2.08	1.0000 
	7	5	-20	29	111	202	3.26	1.38	1.0000 
	-7	-5	20	31	124	279	3.26	-1.38	1.0000 
	-5	-7	20	29	160	221	3.24	-1.44	1.0000 
	7	-5	-20	37	122	178	3.14	2.08	1.0000 
	-5	-7	-21	727	284	644	-0.36	-0.11	1.0000 
	-7	-5	-21	1446	465	1332	-0.34	-0.11	1.0000 
	7	5	-21	1299	403	1184	-0.37	-0.13	1.0000 
	7	-5	-21	1060	539	1653	-1.73	-1.13	1.0000 
	-7	-5	21	1127	331	1020	-0.37	0.13	1.0000 
	-5	-7	21	1892	578	1753	-0.36	0.14	1.0000 
	7	-5	-21	695	376	1183	-1.73	-1.13	1.0000 
	-5	-7	-22	162	83	136	0.22	0.79	1.0000 
	7	5	-22	236	145	211	0.19	0.84	1.0000 
	7	-5	-22	343	143	292	0.36	0.97	1.0000 
	-7	-5	22	162	79	139	0.19	-0.84	1.0000 
	-5	-7	22	532	287	506	0.18	-0.91	1.0000 
	7	-5	-22	262	111	215	0.36	0.97	1.0000 
	5	-7	-22	298	200	250	0.35	0.95	1.0000 
	7	-5	-22	272	200	225	0.36	0.97	1.0000 
	-5	-7	-23	2454	518	1102	3.71	0.86	1.0000 
	7	5	-23	3125	591	1557	3.73	0.81	1.0000 
	7	-5	-23	1917	677	1839	-0.24	0.75	1.0000 
	-7	-5	23	3116	595	1551	3.73	-0.81	1.0000 
	-5	-7	23	3259	617	1648	3.74	-0.78	1.0000 
	5	-7	-23	2197	601	2118	-0.23	0.78	1.0000 
	7	-5	-23	1357	465	1289	-0.24	0.75	1.0000 
	7	-5	-23	1309	445	1242	-0.24	0.75	1.0000 
	7	5	-23	1805	279	673	3.73	0.81	1.0000 
	-5	-7	-24	305	138	274	-0.2	0.02	1.0000 
	7	5	-24	615	250	561	-0.25	0.01	1.0000 
	7	-5	-24	1671	436	974	-2.18	-0.36	1.0000 
	-7	-5	24	773	313	712	-0.25	-0.01	1.0000 
	-5	-7	24	560	245	514	-0.22	-0.02	1.0000 
	5	-7	-24	1746	513	1030	-2.18	-0.33	1.0000 
	7	-5	-24	838	185	370	-2.18	-0.36	1.0000 
	7	5	-24	331	151	292	-0.25	0.01	1.0000 
	7	-5	-24	1234	292	647	-2.18	-0.36	1.0000 
	-5	-7	-25	589	173	241	-2.06	-0.81	1.0000 
	7	5	-25	728	167	343	-2.02	-0.83	1.0000 
	7	-5	-25	639	324	679	-0.16	-0.2	1.0000 
	-5	-7	25	852	211	433	-2	0.81	1.0000 
	-7	-5	25	224	79	35	-2.02	0.83	1.0000 
	5	-7	-25	339	214	359	-0.12	-0.11	1.0000 
	7	-5	-25	345	186	374	-0.16	-0.2	1.0000 
	7	5	-25	580	129	241	-2.02	-0.83	1.0000 
	7	-5	-25	374	235	405	-0.16	-0.2	1.0000 
	-5	-7	-26	2238	983	2823	-1.3	-0.16	1.0000 
	7	-5	-26	4043	1304	4569	-0.88	0.18	1.0000 
	7	5	-26	2118	874	2685	-1.29	-0.12	1.0000 
	-7	-5	26	1679	645	2187	-1.29	0.12	1.0000 
	7	-5	-26	2215	756	2608	-0.88	0.18	1.0000 
	5	-7	-26	3264	1154	3770	-0.93	0.24	1.0000 
	7	5	-26	1499	597	1981	-1.29	-0.12	1.0000 
	7	-5	-26	3155	1083	3621	-0.88	0.18	1.0000 
	-5	-7	-27	32	133	-6	1.04	-0.68	1.0000 
	7	-5	-27	523	270	575	0.18	0.65	1.0000 
	-7	-5	27	267	74	132	1.09	0.49	1.0000 
	5	-7	-27	481	307	540	0.21	0.75	1.0000 
	7	-5	-27	246	176	279	0.18	0.65	1.0000 
	-5	-7	-28	4694	1896	4897	0.34	0.48	1.0000 
	7	-5	-28	9596	2612	9002	-0.68	0.17	1.0000 
	-7	-5	28	3013	1206	3178	0.34	-0.36	1.0000 
	5	-7	-28	4040	1370	3646	-0.7	0.14	1.0000 
	7	-5	-28	8161	2131	7614	-0.68	0.17	1.0000 
	-6	-7	0	86185	10224	70129	-6.38	-0.38	1.0000 
	6	-7	0	85708	10468	71983	-5.42	-0.18	1.0000 
	-6	-7	1	5113	3184	8945	2.35	-5.36	1.0000 
	6	-7	1	3159	1476	5179	-3.28	1.47	1.0000 
	-6	-7	2	21712	3445	22952	-0.81	-1.69	1.0000 
	6	-7	2	22266	4590	21693	0.49	-1.02	1.0000 
	-6	-7	3	20176	3075	20393	0	-2.22	1.0000 
	6	-7	3	22165	3934	20846	-1.12	-2	1.0000 
	-6	-7	4	8524	1833	8831	-0.14	3.43	1.0000 
	6	-7	4	8136	1802	8326	0.25	-0.59	1.0000 
	6	-7	-4	20186	3158	20661	0.38	0.24	1.0000 
	-6	-7	5	28150	4324	29212	0.31	4.1	1.0000 
	6	-7	5	33356	6237	32137	0.72	-0.82	1.0000 
	-7	-6	6	5031	1918	5733	-0.96	-1.19	1.0000 
	-6	-7	6	4950	2035	5622	-0.92	-1.2	1.0000 
	6	-7	6	2547	1125	3586	-2.09	0.89	1.0000 
	6	-7	-6	4225	1665	5493	-2.03	-0.37	1.0000 
	-7	-6	-7	12863	4828	13487	-0.56	0.75	1.0000 
	-6	-7	7	22061	963	23040	-0.67	-0.78	1.0000 
	-7	-6	-8	877	604	2085	3.45	1.47	1.0000 
	-7	-6	-8	384	563	1258	3.45	1.47	1.0000 
	-7	-6	-8	110	778	671	3.45	1.47	1.0000 
	-7	-6	-8	45	855	460	3.45	1.47	1.0000 
	-6	-7	8	1778	1297	3354	3.41	-1.12	1.0000 
	7	-6	-10	2192	1104	3512	-2.69	-0.74	1.0000 
	-7	-6	-11	5990	2125	5930	0.12	0.45	1.0000 
	7	-6	-11	11482	2181	10755	-0.73	-1.5	1.0000 
	6	-7	-11	10672	1862	9982	-0.71	-1.44	1.0000 
	7	-6	-12	363	433	1468	-4.02	1.58	1.0000 
	6	-7	-12	377	521	1519	-4.08	1.61	1.0000 
	-7	-6	-13	284	298	803	2.63	2.42	1.0000 
	7	-6	-13	1438	645	1993	-1.46	-0.42	1.0000 
	6	-7	-13	1307	700	1853	-1.5	-0.39	1.0000 
	-7	-6	-14	6362	1743	6141	-0.29	0.37	1.0000 
	7	-6	-14	6165	1192	6504	0.43	-0.66	1.0000 
	-7	-6	14	7526	1397	7339	-0.22	-0.6	1.0000 
	6	-7	-14	9112	1474	9496	0.39	-0.71	1.0000 
	7	-6	-14	10302	1737	10741	0.43	-0.66	1.0000 
	-6	-7	-15	346	368	944	2.7	-0.79	1.0000 
	7	-6	-15	1454	659	2200	-1.94	0.3	1.0000 
	-6	-7	15	1644	916	2783	2.7	0.68	1.0000 
	6	-7	-15	2748	1148	3741	-1.93	0.09	1.0000 
	7	-6	-15	2273	929	3187	-1.94	0.3	1.0000 
	-6	-7	-16	13070	3757	12080	0.96	-0.58	1.0000 
	7	-6	-16	24230	2635	24074	0.09	-0.65	1.0000 
	-6	-7	16	23847	2831	22643	0.86	0.55	1.0000 
	6	-7	-16	33397	4786	33291	0.05	-0.83	1.0000 
	7	-6	-16	31917	5081	31739	0.09	-0.65	1.0000 
	-7	-6	-17	5059	1329	3790	2.12	0.11	1.0000 
	-6	-7	-17	3186	923	2194	2.13	0.18	1.0000 
	7	-6	-17	6171	1338	5087	-1.61	0.18	1.0000 
	-6	-7	17	8340	1928	6696	2.11	-0.09	1.0000 
	6	-7	-17	9657	2321	8302	-1.59	0.17	1.0000 
	7	-6	-17	8895	1933	7583	-1.61	0.18	1.0000 
	-6	-7	-18	5614	2157	5509	-0.12	1.23	1.0000 
	-7	-6	-18	7852	2469	7730	-0.13	1.27	1.0000 
	7	-6	-18	9497	2830	9775	0.34	0.9	1.0000 
	-6	-7	18	12659	3433	12513	-0.13	-1.33	1.0000 
	6	-7	-18	12943	3301	13257	0.32	0.76	1.0000 
	7	-6	-18	8019	2178	8273	0.34	0.9	1.0000 
	-7	-6	-19	12234	3444	11708	-0.53	0.19	1.0000 
	-6	-7	-19	8796	2916	8345	-0.53	0.14	1.0000 
	7	-6	-19	16068	2580	16106	-0.05	0.87	1.0000 
	7	-6	-19	14332	3456	14367	-0.05	0.87	1.0000 
	-7	-6	-20	1792	715	2081	-0.75	-0.55	1.0000 
	-6	-7	-20	1157	590	1389	-0.74	-0.51	1.0000 
	7	-6	-20	2162	804	2913	-1.66	-0.05	1.0000 
	7	-6	-20	2435	884	3229	-1.66	-0.05	1.0000 
	-7	-6	-21	17411	3641	18565	-0.95	-0.03	1.0000 
	-6	-7	-21	15286	3365	16357	-0.94	0	1.0000 
	7	-6	-21	17388	4175	20609	2.52	1.47	1.0000 
	-7	-6	21	19928	4330	21134	-0.93	-0.06	1.0000 
	-6	-7	21	21305	4749	22547	-0.93	-0.04	1.0000 
	7	-6	-21	19205	4222	22585	2.52	1.47	1.0000 
	7	-6	-21	15079	3473	18086	2.52	1.47	1.0000 
	-6	-7	-22	51	202	244	-1.89	-0.02	1.0000 
	-7	-6	-22	52	179	247	-1.89	0.02	1.0000 
	7	-6	-22	410	445	1010	-2.56	0.11	1.0000 
	-7	-6	22	541	537	1032	-1.95	0.19	1.0000 
	7	-6	-22	548	605	1221	-2.56	0.11	1.0000 
	7	-6	-22	612	562	1315	-2.56	0.11	1.0000 
	-7	-6	-23	14708	4022	15277	0.5	-0.19	1.0000 
	-6	-7	-23	11747	3864	12279	0.53	-0.16	1.0000 
	7	-6	-23	19094	4839	19012	0.1	-0.75	1.0000 
	-7	-6	23	15124	4174	15690	0.5	0.18	1.0000 
	7	-6	-23	20186	5188	20102	0.1	-0.75	1.0000 
	6	-7	-23	21411	5635	21327	0.11	-0.81	1.0000 
	7	-6	-23	15225	3833	15151	0.1	-0.75	1.0000 
	-7	-6	-24	2247	864	2728	1.07	0.24	1.0000 
	-6	-7	-24	1150	467	1486	1.03	0.27	1.0000 
	7	-6	-24	2344	966	3096	1.6	0.52	1.0000 
	-7	-6	24	2228	942	2697	1.05	-0.21	1.0000 
	6	-7	-24	2877	1294	3714	1.62	0.46	1.0000 
	7	-6	-24	2865	1156	3691	1.6	0.52	1.0000 
	7	-6	-24	2177	903	2903	1.6	0.52	1.0000 
	-6	-7	-25	12108	3945	11749	0.37	0.11	1.0000 
	7	-6	-25	22106	5978	20807	-0.97	-0.52	1.0000 
	-7	-6	25	16232	4677	15880	0.32	-0.24	1.0000 
	7	-6	-25	19440	5192	18223	-0.97	-0.52	1.0000 
	6	-7	-25	23520	6296	22194	-0.95	-0.56	1.0000 
	7	-6	-25	17376	4596	16226	-0.97	-0.52	1.0000 
	-7	-6	-26	3053	992	2765	0.6	0.07	1.0000 
	-6	-7	-26	1846	678	1625	0.59	0.07	1.0000 
	7	-6	-26	3268	1319	3761	-0.93	-0.73	1.0000 
	-6	-7	26	4082	1282	3738	0.62	-0.14	1.0000 
	-7	-6	26	2813	860	2532	0.61	-0.15	1.0000 
	7	-6	-26	1988	816	2374	-0.93	-0.73	1.0000 
	6	-7	-26	2802	1143	3241	-0.89	-0.75	1.0000 
	7	-6	-26	1844	796	2216	-0.93	-0.73	1.0000 
	-7	-6	-27	8194	2352	7178	-1.3	-0.24	1.0000 
	-6	-7	-27	4717	1586	3953	-1.3	-0.17	1.0000 
	7	-6	-27	11870	2707	9770	2.23	0.3	1.0000 
	-6	-7	27	10428	2586	9249	-1.32	0.11	1.0000 
	-7	-6	27	6991	1789	6038	-1.31	0.06	1.0000 
	7	-6	-27	5685	1632	4263	2.23	0.3	1.0000 
	6	-7	-27	8008	1970	6305	2.22	0.33	1.0000 
	7	-6	-27	6996	1920	5407	2.23	0.3	1.0000 
	-7	-7	0	74844	12708	83025	3.23	0.3	1.0000 
	-7	-7	1	3612	3455	9830	8.66	-0.45	1.0000 
	-7	-7	-1	15530	4258	26910	8.74	0.5	1.0000 
	7	-7	1	2632	1875	5567	-4.99	1.64	1.0000 
	-7	-7	2	29049	5369	34508	-3.38	-0.55	1.0000 
	7	-7	2	29503	8116	37646	-4.69	-3.83	1.0000 
	7	-7	-4	24105	5579	35544	7.34	-0.93	1.0000 
	7	-7	5	53289	11717	75271	-9.63	-0.34	1.0000 
	-7	-7	11	12636	1362	13282	-0.72	2.77	1.0000 
	7	-7	-11	21367	3467	22111	0.56	0.03	1.0000 
	-7	-7	-12	752	184	464	-1.65	-2.6	1.0000 
	-7	-7	12	1854	519	1484	-1.59	2.46	1.0000 
	-7	-7	-13	21	378	826	6.38	0.7	1.0000 
	-7	-7	13	63	409	1227	6.41	-0.86	1.0000 
	7	-7	-13	387	712	1985	-5.77	1.71	1.0000 
	-7	-7	-14	801	280	709	-1.76	-3.28	1.0000 
	-7	-7	14	956	446	873	-1.73	3.18	1.0000 
	7	-7	-14	2187	535	1664	-1.37	-0.28	1.0000 
	-7	-7	-15	3259	1110	2922	-0.71	-1.59	1.0000 
	7	-7	-15	6301	1517	6152	0.45	2.29	1.0000 
	-7	-7	-16	4500	1802	5193	-1.09	0.53	1.0000 
	7	-7	-16	11983	3432	12628	-0.63	-1.43	1.0000 
	7	-7	-17	13650	3991	18540	4.29	0.17	1.0000 
	-7	-7	-18	1303	1110	1973	1.86	0.43	1.0000 
	7	-7	-18	7572	2427	7803	0.13	-1.42	1.0000 
	-7	-7	-19	36886	9599	39965	1.77	1.01	1.0000 
	-7	-7	-20	1182	516	1116	0.32	0.42	1.0000 
	-7	-7	-21	54666	13177	54986	-0.11	0.84	1.0000 
	-7	-7	-22	150	335	602	3.46	-2.36	1.0000 
	-7	-7	-23	44607	12258	45986	0.74	0.42	1.0000 
	-7	-7	23	46597	12855	47919	0.69	-0.45	1.0000 
	7	-7	-23	73862	27626	70361	1.49	-0.84	1.0000 
	-7	-7	-24	431	374	775	1.47	-1.41	1.0000 
	-7	-7	24	3410	1802	4341	1.44	1.51	1.0000 
	7	-7	-24	4542	1691	4658	-0.21	-1.77	1.0000 
	-8	0	-2	39311	2428	34078	3.02	-1.55	1.0000 
	-8	0	-2	42404	4283	36964	3.02	-1.55	1.0000 
	-8	0	-2	42651	4355	37195	3.02	-1.55	1.0000 
	-8	0	-2	43162	2494	37672	3.02	-1.55	1.0000 
	-8	0	-4	24947	3557	25104	0.04	-1.55	1.0000 
	-8	0	-4	24063	3869	24216	0.04	-1.55	1.0000 
	-8	0	-4	25081	1995	25238	0.04	-1.55	1.0000 
	-8	0	-4	26013	1507	26174	0.04	-1.55	1.0000 
	-8	0	-6	12671	3532	13550	-0.81	1.03	1.0000 
	-8	0	-6	10441	3779	11239	-0.81	1.03	1.0000 
	-8	0	-6	12131	3802	12991	-0.81	1.03	1.0000 
	-8	0	-6	10768	1647	11578	-0.81	1.03	1.0000 
	0	-8	-6	11544	2059	12341	-0.77	1.01	1.0000 
	-8	0	8	4929	1207	4711	-0.36	-0.61	1.0000 
	-8	0	-8	4312	1453	4048	-0.46	0.6	1.0000 
	-8	0	-8	3138	1446	2912	-0.46	0.6	1.0000 
	-8	0	8	3891	961	3697	-0.36	-0.61	1.0000 
	-8	0	-8	3269	1352	3038	-0.46	0.6	1.0000 
	-8	0	8	3525	766	3340	-0.36	-0.61	1.0000 
	-8	0	-8	3275	916	3044	-0.46	0.6	1.0000 
	0	-8	8	3390	554	3170	-0.43	-0.62	1.0000 
	0	-8	-8	3916	662	3697	-0.4	0.6	1.0000 
	-8	0	10	5789	1542	6609	1.16	-0.2	1.0000 
	-8	0	-10	4936	1568	5674	1.12	0.13	1.0000 
	-8	0	-10	4076	1801	4749	1.12	0.13	1.0000 
	8	0	10	3673	1888	4313	1.12	-0.13	1.0000 
	-8	0	10	6087	1784	6927	1.16	-0.2	1.0000 
	-8	0	-10	4752	1239	5476	1.12	0.13	1.0000 
	8	0	-10	6022	1590	6857	1.16	0.2	1.0000 
	0	-8	10	5766	1094	6538	1.09	-0.29	1.0000 
	0	-8	-10	6919	1283	7843	1.19	0.02	1.0000 
	-8	0	12	10529	2153	9352	1.3	0.88	1.0000 
	-8	0	-12	5323	2899	4475	1.33	-1.05	1.0000 
	-8	0	-12	8043	2373	6997	1.33	-1.05	1.0000 
	8	0	12	7093	2326	6112	1.33	1.05	1.0000 
	-8	0	12	10182	2080	9025	1.3	0.88	1.0000 
	-8	0	-12	9142	2112	8026	1.33	-1.05	1.0000 
	8	0	-12	11707	2438	10465	1.3	-0.88	1.0000 
	0	-8	12	11408	1955	10161	1.32	0.75	1.0000 
	0	-8	-12	13641	2225	12295	1.31	-1.17	1.0000 
	-8	0	14	1783	550	1903	0.34	-0.68	1.0000 
	-8	0	-14	1101	555	1199	0.35	0.54	1.0000 
	8	0	14	1204	524	1306	0.35	-0.54	1.0000 
	-8	0	14	1766	438	1885	0.34	-0.68	1.0000 
	-8	0	-14	1473	486	1587	0.35	0.54	1.0000 
	8	0	-14	1379	472	1484	0.34	0.68	1.0000 
	0	-8	-14	1836	413	1966	0.35	0.42	1.0000 
	-8	0	-16	29	217	110	-1.1	0.9	1.0000 
	8	0	-16	45	192	-10	-1.17	0.91	1.0000 
	0	-8	-16	67	151	176	-1.08	0.84	1.0000 
	-8	0	-18	71	240	328	-2.22	0.57	1.0000 
	8	0	-18	77	201	336	-2.19	0.58	1.0000 
	0	-8	18	220	203	604	-2.2	-0.59	1.0000 
	0	-8	-18	25	167	209	-2.23	0.57	1.0000 
	-8	0	-20	489	244	246	1.4	-0.42	1.0000 
	8	0	-20	387	95	172	1.43	-0.44	1.0000 
	0	-8	20	287	181	107	1.43	0.37	1.0000 
	0	-8	-20	150	111	33	1.4	-0.49	1.0000 
	-8	0	-22	3218	1526	3835	1.15	1.05	1.0000 
	8	0	-22	4163	1395	4846	1.12	0.89	1.0000 
	0	-8	22	5107	1549	5892	1.16	-0.95	1.0000 
	-8	0	-24	9918	5628	11515	-1.71	-0.25	1.0000 
	8	0	-24	12026	3519	13784	-1.71	-0.21	1.0000 
	0	-8	24	13845	3428	15725	-1.71	0.23	1.0000 
	-8	0	-26	52	147	-14	1.59	-0.17	1.0000 
	8	0	-26	52	244	-39	1.59	-0.1	1.0000 
	0	-8	26	206	128	52	1.58	0.15	1.0000 
	-8	0	-28	2794	856	2324	-1.02	0.6	1.0000 
	8	0	-28	4037	1046	3466	-1.02	0.61	1.0000 
	0	-8	28	3820	1001	3266	-1.02	-0.56	1.0000 
	8	0	-28	3669	922	3125	-1.02	0.61	1.0000 
	-8	0	-30	2498	1255	3231	-1.53	-0.35	1.0000 
	8	0	-30	2843	1254	3633	-1.55	-0.4	1.0000 
	8	0	-30	2776	1207	3557	-1.55	-0.4	1.0000 
	-8	1	-1	4212	1089	4977	0.9	2.53	1.0000 
	-8	1	-2	35781	4129	33464	1.38	0.03	1.0000 
	-8	1	-2	34809	3377	32524	1.38	0.03	1.0000 
	-8	1	-2	33011	3105	30787	1.38	0.03	1.0000 
	-8	1	-2	33787	1827	31536	1.38	0.03	1.0000 
	-8	-1	-3	14587	2085	15371	0.6	3.69	1.0000 
	-8	1	-3	20065	4432	16168	3.22	-0.08	1.0000 
	-8	-1	-3	13674	1976	14425	0.6	3.69	1.0000 
	-8	1	-3	18038	4287	14354	3.22	-0.08	1.0000 
	-8	-1	-3	14594	2128	15378	0.6	3.69	1.0000 
	-8	1	-3	20865	4690	16887	3.22	-0.08	1.0000 
	-8	-1	-3	14565	1187	15348	0.6	3.69	1.0000 
	-8	1	-3	19407	1833	15578	3.22	-0.08	1.0000 
	-8	1	-4	29964	3887	32709	1.69	-0.88	1.0000 
	-8	-1	-4	32892	4070	34254	0.83	0.37	1.0000 
	-8	-1	-4	33333	6423	34704	0.83	0.37	1.0000 
	-8	1	-4	30132	3897	32885	1.69	-0.88	1.0000 
	-8	-1	-4	33221	5527	34589	0.83	0.37	1.0000 
	-8	1	-4	28842	3769	31536	1.69	-0.88	1.0000 
	-8	-1	-4	30758	3981	32075	0.83	0.37	1.0000 
	-8	1	-4	29281	3494	31995	1.69	-0.88	1.0000 
	-8	1	-5	23596	4754	28567	3.35	-1.11	1.0000 
	-8	-1	-5	31889	3712	30676	0.71	2.63	1.0000 
	-8	1	-5	23990	5257	29001	3.35	-1.11	1.0000 
	-8	-1	-5	30880	5570	29684	0.71	2.63	1.0000 
	-8	-1	-5	32731	5422	31504	0.71	2.63	1.0000 
	-8	1	-5	24423	5361	29476	3.35	-1.11	1.0000 
	-8	-1	-5	32063	3953	30847	0.71	2.63	1.0000 
	-8	1	-5	25496	3359	30654	3.35	-1.11	1.0000 
	-8	-1	-6	27891	3598	24836	2.08	-1	1.0000 
	-8	1	-6	23869	4998	24920	-0.72	0.88	1.0000 
	-8	-1	-6	26470	3378	23496	2.08	-1	1.0000 
	-8	1	-6	21104	5199	22092	-0.72	0.88	1.0000 
	-8	-1	-6	27013	3107	24008	2.08	-1	1.0000 
	-8	1	-6	24568	6606	25634	-0.72	0.88	1.0000 
	-8	-1	-6	26119	2903	23165	2.08	-1	1.0000 
	-8	1	-6	22517	3147	23538	-0.72	0.88	1.0000 
	-1	-8	-6	19992	1975	17419	2.08	-1	1.0000 
	1	-8	-6	20132	2480	21007	-0.65	0.93	1.0000 
	-8	-1	-7	34488	4752	38195	2.2	1.01	1.0000 
	-8	1	-7	46494	5989	41444	2.64	0.98	1.0000 
	-8	-1	-7	33013	4575	36642	2.2	1.01	1.0000 
	-8	1	-7	42762	5322	37924	2.64	0.98	1.0000 
	-8	-1	-7	31160	4493	34687	2.2	1.01	1.0000 
	-8	1	-7	44481	5072	39545	2.64	0.98	1.0000 
	-8	-1	-7	33076	4200	36708	2.2	1.01	1.0000 
	-8	1	-7	43006	4379	38154	2.64	0.98	1.0000 
	-1	-8	7	27944	3379	31229	2.15	-0.88	1.0000 
	-1	-8	-7	41749	7572	45794	2.18	0.85	1.0000 
	1	-8	-7	39125	3758	34517	2.63	1.04	1.0000 
	-8	-1	-8	11230	2968	10274	-1.03	0.89	1.0000 
	-8	-1	-8	9648	3067	8762	-1.03	0.89	1.0000 
	-8	-1	-8	8101	3103	7289	-1.03	0.89	1.0000 
	-8	-1	-8	10235	2272	9322	-1.03	0.89	1.0000 
	-1	-8	8	12390	1855	11345	-1.08	-1.07	1.0000 
	-1	-8	-8	12598	2321	11530	-1.09	0.87	1.0000 
	1	-8	-8	10483	1956	9795	-0.76	0.53	1.0000 
	-8	-1	-9	38910	4912	40909	-1.05	1.01	1.0000 
	-8	-1	-9	35644	4578	37557	-1.05	1.01	1.0000 
	8	1	9	33277	5678	35126	-1.05	-1.01	1.0000 
	-8	1	-9	46137	4157	39694	-3.4	-1.99	1.0000 
	-8	-1	-9	35158	3880	37058	-1.05	1.01	1.0000 
	-1	-8	9	33735	3336	35617	-1.06	-1.08	1.0000 
	1	-8	-9	43462	3533	37238	-3.38	-1.95	1.0000 
	-1	-8	-9	44957	6619	47108	-1.05	1.06	1.0000 
	-8	-1	-10	4079	1225	4686	1.01	-0.14	1.0000 
	-8	-1	-10	3446	1535	4006	1.01	-0.14	1.0000 
	-8	1	-10	4280	1561	4660	0.63	0.12	1.0000 
	8	1	10	3112	1468	3645	1.01	0.14	1.0000 
	-8	1	-10	4327	1325	4709	0.63	0.12	1.0000 
	-1	-8	-10	6952	1164	7727	1	-0.14	1.0000 
	1	-8	-10	7700	1315	8215	0.64	0.14	1.0000 
	8	1	11	29251	4180	25598	-2.49	0.69	1.0000 
	8	-1	11	21677	6231	18371	2.57	-0.59	1.0000 
	-8	-1	-11	29342	3790	25683	-2.49	-0.69	1.0000 
	-8	1	-11	21906	2753	18581	2.57	0.59	1.0000 
	1	-8	11	30576	4093	26650	2.55	-0.57	1.0000 
	1	-8	-11	30204	4676	26205	2.62	0.71	1.0000 
	-1	-8	-11	35444	5638	31328	-2.53	-0.58	1.0000 
	1	-8	12	14198	2877	14832	-0.59	0.14	1.0000 
	1	-8	-12	15607	3059	16209	-0.53	-0.04	1.0000 
	-1	-8	-12	21713	4132	20927	0.81	2.83	1.0000 
	-8	1	13	11666	3110	9332	-2.52	-1.76	1.0000 
	-8	-1	-13	9730	2586	7361	2.89	-0.87	1.0000 
	-8	1	13	12106	2360	9727	-2.52	-1.76	1.0000 
	-8	1	-13	10712	2186	8539	-2.43	1.37	1.0000 
	1	-8	13	13525	2092	11008	-2.51	-1.56	1.0000 
	1	-8	-13	12927	2037	10519	-2.45	1.58	1.0000 
	-1	-8	-13	15054	2302	12066	2.89	-0.72	1.0000 
	-8	-1	14	14159	3128	11277	-2.83	-1.14	1.0000 
	-8	1	14	14839	2661	11778	-2.94	-0.16	1.0000 
	-8	-1	-14	10539	3560	8075	-2.83	1.23	1.0000 
	8	1	14	11022	3510	8499	-2.83	-1.23	1.0000 
	-8	-1	14	15385	3154	12375	-2.83	-1.14	1.0000 
	-8	1	14	16219	2824	13011	-2.94	-0.16	1.0000 
	-8	-1	-14	16645	2326	13514	-2.83	1.23	1.0000 
	-8	1	-14	14952	2816	11904	-2.92	0.09	1.0000 
	-1	-8	14	19553	3073	16155	-2.82	-1.06	1.0000 
	1	-8	-14	19620	2787	16061	-2.95	0.13	1.0000 
	-1	-8	-14	21279	3198	17710	-2.84	1.29	1.0000 
	-8	-1	-15	113	379	394	-6.44	1.94	1.0000 
	-8	1	-15	653	182	135	8.1	-1.28	1.0000 
	8	1	-15	365	188	128	-6.43	1.98	1.0000 
	8	-1	-15	374	226	327	8.16	-1.11	1.0000 
	-1	-8	15	13	357	1131	-6.42	-2.01	1.0000 
	1	-8	15	174	230	595	8.09	1.35	1.0000 
	1	-8	-15	88	296	814	8.17	-1.09	1.0000 
	-1	-8	-15	3	316	872	-6.45	1.95	1.0000 
	-8	-1	-16	12181	2302	11009	1.2	-0.59	1.0000 
	-8	1	-16	12201	2742	11194	1.09	1.17	1.0000 
	8	1	-16	12375	2140	11176	1.22	-0.55	1.0000 
	8	-1	-16	12986	1866	11975	1.04	0.95	1.0000 
	-1	-8	16	13519	1929	12218	1.26	0.62	1.0000 
	1	-8	-16	16322	1724	15179	1.07	1.22	1.0000 
	-1	-8	-16	15444	1746	14183	1.14	-0.49	1.0000 
	-8	-1	-17	6019	2119	6090	0.11	0.22	1.0000 
	-8	1	-17	6647	1922	7669	-1.23	-1.98	1.0000 
	8	1	-17	8592	2069	8719	0.16	0.28	1.0000 
	-1	-8	17	9825	2004	9944	0.14	-0.3	1.0000 
	1	-8	-17	10797	2224	12101	-1.22	-1.96	1.0000 
	-8	-1	-18	9538	2246	8545	-1.18	-0.55	1.0000 
	-8	1	-18	8261	2173	7698	-0.7	-0.09	1.0000 
	-1	-8	18	11856	2341	10756	-1.17	0.52	1.0000 
	1	-8	-18	11842	2079	11152	-0.71	-0.03	1.0000 
	-8	-1	-19	30571	5895	29694	0.54	-0.63	1.0000 
	-8	1	-19	24295	6234	26455	1.5	0.19	1.0000 
	1	-8	19	27409	5559	29742	1.52	-0.24	1.0000 
	-1	-8	19	32638	5096	31681	0.57	0.78	1.0000 
	1	-8	-19	33389	7018	35910	1.49	0.2	1.0000 
	8	-1	-19	20668	4126	22689	1.51	0.25	1.0000 
	-8	-1	-20	7145	1765	8650	-1.86	0.73	1.0000 
	-8	1	-20	7075	1870	8540	-1.84	-0.07	1.0000 
	8	1	-20	9618	2816	11314	-1.81	0.76	1.0000 
	8	-1	-20	9519	2580	11235	-1.87	-0.29	1.0000 
	1	-8	20	8465	1627	10067	-1.85	0.4	1.0000 
	-1	-8	20	11681	2767	13578	-1.85	-0.66	1.0000 
	1	-8	-20	10338	1681	12115	-1.86	0.05	1.0000 
	-8	-1	-21	45391	4888	43287	-1.16	-1.07	1.0000 
	1	-8	21	47467	4899	48058	-0.29	0.37	1.0000 
	-1	-8	21	52118	5124	49895	-1.14	1.05	1.0000 
	1	-8	-21	44839	4536	45344	-0.24	-0.57	1.0000 
	-8	-1	-22	12365	3628	10702	-1.72	-0.21	1.0000 
	-1	-8	22	17496	5763	15496	-1.73	0.23	1.0000 
	1	-8	22	12241	2885	11986	-0.29	1.03	1.0000 
	-8	-1	-23	45651	6037	37613	4.4	0.63	1.0000 
	8	1	-23	53939	6414	45183	4.41	0.81	1.0000 
	-1	-8	23	51831	6501	43265	4.4	-0.74	1.0000 
	1	-8	23	38063	4969	35887	-1.25	0.16	1.0000 
	-8	-1	-24	19883	4390	17757	1.72	0	1.0000 
	8	1	-24	25192	4067	22818	1.7	0.06	1.0000 
	-1	-8	24	26571	5242	24080	1.73	-0.14	1.0000 
	1	-8	24	22033	4039	21309	0.54	-0.01	1.0000 
	-8	-1	-25	29898	4838	27860	-1.38	-0.81	1.0000 
	8	1	-25	32635	6107	30471	-1.4	-0.82	1.0000 
	-1	-8	25	33353	6545	31177	-1.39	0.75	1.0000 
	1	-8	25	33233	5329	30588	1.64	-0.03	1.0000 
	-8	-1	-26	421	418	390	-0.19	0.33	1.0000 
	8	-1	-26	1208	641	1382	0.47	0.65	1.0000 
	8	1	-26	1446	668	1385	-0.2	0.3	1.0000 
	-1	-8	26	1349	603	1290	-0.22	-0.43	1.0000 
	1	-8	26	1257	638	1431	0.47	-0.58	1.0000 
	-8	-1	-27	10016	3346	8773	1.46	0.64	1.0000 
	8	1	-27	14079	3790	12610	1.44	0.53	1.0000 
	8	-1	-27	14288	3852	14122	-0.14	-0.37	1.0000 
	-1	-8	27	15703	4002	14145	1.45	-0.54	1.0000 
	-8	-1	-28	371	243	516	0.78	0.19	1.0000 
	8	1	-28	339	282	474	0.76	0.2	1.0000 
	8	-1	-28	447	379	836	1.71	-0.19	1.0000 
	-1	-8	28	512	336	676	0.76	-0.34	1.0000 
	8	-1	-28	216	245	504	1.71	-0.19	1.0000 
	8	1	-28	904	368	1117	0.76	0.2	1.0000 
	-8	-1	-29	2889	1022	3076	0.4	0.67	1.0000 
	8	1	-29	3009	1000	3221	0.44	0.65	1.0000 
	8	-1	-29	3637	1079	3492	0.28	-0.28	1.0000 
	-1	-8	29	3032	976	3238	0.43	-0.62	1.0000 
	8	1	-29	3171	1012	3389	0.44	0.65	1.0000 
	8	-1	-29	3111	870	2977	0.28	-0.28	1.0000 
	-8	-1	-30	101	135	76	0.27	-0.18	1.0000 
	8	1	-30	148	104	119	0.27	-0.08	1.0000 
	8	-1	-30	210	177	200	0.13	0.2	1.0000 
	-1	-8	30	255	150	215	0.28	0.09	1.0000 
	8	-1	-30	284	192	272	0.13	0.2	1.0000 
	8	1	-30	410	199	360	0.27	-0.08	1.0000 
	2	-8	-2	17929	1759	15484	2.1	0.12	1.0000 
	-8	2	-3	59566	7491	69639	-4.28	2.06	1.0000 
	2	-8	-3	53961	6741	63423	-4.22	2.11	1.0000 
	-8	-2	-4	27393	4750	32322	3.13	-1.07	1.0000 
	-8	-2	-4	27078	4694	31980	3.13	-1.07	1.0000 
	-8	-2	-4	28870	4799	33925	3.13	-1.07	1.0000 
	-8	-2	-4	32287	4091	37623	3.13	-1.07	1.0000 
	-8	2	-4	26239	4039	30985	3.1	-0.55	1.0000 
	-8	-2	-5	127283	15921	144481	-5.17	0	1.0000 
	-8	-2	-5	122324	15447	139195	-5.17	0	1.0000 
	-8	-2	-5	127464	15954	144674	-5.17	0	1.0000 
	-8	-2	-5	122720	15220	139617	-5.17	0	1.0000 
	-8	2	-5	153262	15577	148455	-1.35	-0.75	1.0000 
	-8	-2	-6	42423	5515	47696	-2.74	0.52	1.0000 
	-8	-2	-6	43275	5587	48599	-2.74	0.52	1.0000 
	-8	-2	-6	47243	6030	52799	-2.74	0.52	1.0000 
	-8	-2	-6	47273	5671	52831	-2.74	0.52	1.0000 
	-8	2	-6	40834	4763	44038	-1.67	-2.03	1.0000 
	-2	-8	6	36143	4422	41040	-2.76	-0.32	1.0000 
	-8	2	-7	166986	17353	179033	-3.28	-2.69	1.0000 
	-8	-2	-7	184787	15250	164862	-5.24	-1.25	1.0000 
	-8	-2	-7	183049	15079	163221	-5.24	-1.25	1.0000 
	-8	-2	-7	185017	15262	165080	-5.24	-1.25	1.0000 
	-8	2	-7	165908	16849	177916	-3.28	-2.69	1.0000 
	-8	-2	-7	179434	14358	159808	-5.24	-1.25	1.0000 
	-8	2	-7	175565	16853	187917	-3.28	-2.69	1.0000 
	2	-8	-7	153922	14871	165456	-3.27	-2.66	1.0000 
	-8	-2	-8	27414	8386	23473	-2.99	-3.1	1.0000 
	-8	2	-8	28352	5813	22367	-4.26	2.04	1.0000 
	-8	-2	-8	24836	9040	21081	-2.99	-3.1	1.0000 
	-8	2	-8	26113	6423	20380	-4.26	2.04	1.0000 
	-8	-2	-8	16919	8873	13808	-2.99	-3.1	1.0000 
	-8	2	-8	27995	6227	22050	-4.26	2.04	1.0000 
	-8	2	-8	27567	2174	21669	-4.26	2.04	1.0000 
	2	-8	-8	26137	3790	20337	-4.3	1.9	1.0000 
	-8	2	-9	170532	16929	183407	3.43	1.14	1.0000 
	-8	2	-9	167062	16583	179807	3.43	1.14	1.0000 
	-8	2	-9	166030	16506	178737	3.43	1.14	1.0000 
	-8	2	-9	169723	16391	182568	3.43	1.14	1.0000 
	2	-8	9	143207	13910	155268	3.5	-1.19	1.0000 
	2	-8	-9	161648	15680	174190	3.43	1.21	1.0000 
	-8	2	-10	3744	1893	5312	-2.23	1.63	1.0000 
	-8	2	-10	3275	1732	4749	-2.23	1.63	1.0000 
	-8	2	-10	4421	2048	6114	-2.23	1.63	1.0000 
	2	-8	10	2995	894	4321	-2.39	-0.6	1.0000 
	-8	-2	10	2871	1965	5566	-4.65	0.29	1.0000 
	2	-8	-10	8414	2415	10662	-2.27	1.42	1.0000 
	-8	-2	-11	109790	15414	106809	-0.96	1.56	1.0000 
	-8	-2	-11	110020	15437	107036	-0.96	1.56	1.0000 
	-8	2	-11	130889	17937	113683	5.53	-1.86	1.0000 
	8	2	11	113676	15896	110643	-0.96	-1.56	1.0000 
	-8	2	-11	140729	17663	122869	5.53	-1.86	1.0000 
	-8	-2	-11	108472	14922	105509	-0.96	1.56	1.0000 
	2	-8	11	129379	15847	112410	5.5	1.99	1.0000 
	2	-8	12	963	621	2833	-4.92	0.25	1.0000 
	2	-8	-12	3368	1208	6478	-4.95	0.48	1.0000 
	-8	2	13	43309	8416	46783	1.78	0.85	1.0000 
	-8	2	-13	31235	9727	34224	1.81	-0.54	1.0000 
	-8	2	-13	25858	8875	28584	1.81	-0.54	1.0000 
	8	2	13	55206	7536	46714	4.16	-3.78	1.0000 
	8	-2	13	38669	6419	41988	1.81	0.54	1.0000 
	-8	2	13	40789	10183	44162	1.78	0.85	1.0000 
	-8	2	-13	29758	4846	32677	1.81	-0.54	1.0000 
	2	-8	13	43285	7050	46851	1.83	0.83	1.0000 
	-2	-8	13	58608	7832	50026	4.07	-3.58	1.0000 
	-8	2	-14	840	358	947	0.28	-1	1.0000 
	-8	2	-14	616	402	705	0.28	-1	1.0000 
	8	-2	14	431	394	503	0.28	1	1.0000 
	-8	-2	-14	1036	600	1370	0.97	-0.94	1.0000 
	-8	2	-14	933	365	1047	0.28	-1	1.0000 
	2	-8	14	1132	383	1246	0.2	1.2	1.0000 
	-2	-8	14	3176	1346	3776	1.01	0.96	1.0000 
	2	-8	-14	4081	1344	4285	0.23	-0.86	1.0000 
	-8	-2	-15	1220	1607	4011	6.27	-0.67	1.0000 
	-8	2	-15	1642	1431	4323	-5.58	-0.11	1.0000 
	8	2	-15	2387	2232	5889	6.15	-0.78	1.0000 
	8	-2	-15	2360	1728	5436	-5.56	-0.19	1.0000 
	2	-8	15	2466	1579	5594	-5.56	0.08	1.0000 
	-2	-8	15	2564	1933	6179	6.17	0.65	1.0000 
	2	-8	-15	158531	44670	179308	-5.59	-0.23	1.0000 
	-8	-2	-16	1298	345	969	1.08	-0.16	1.0000 
	-8	2	-16	1538	320	985	1.73	-0.14	1.0000 
	8	-2	-16	1817	392	1243	1.63	0.02	1.0000 
	8	2	-16	1572	395	1197	1.12	-0.27	1.0000 
	2	-8	16	1849	378	1262	1.66	0.03	1.0000 
	-2	-8	16	2005	475	1593	1.07	0.26	1.0000 
	2	-8	-16	2280	511	1596	1.73	-0.11	1.0000 
	-8	-2	-17	5521	2243	5896	0.57	0.54	1.0000 
	-8	2	-17	6992	2091	6304	0.95	-0.26	1.0000 
	8	-2	-17	8885	1772	8081	0.98	-0.18	1.0000 
	2	-8	17	8271	1415	7506	0.96	0.16	1.0000 
	-2	-8	17	7722	1667	8150	0.55	-0.54	1.0000 
	2	-8	-17	8710	1451	7939	0.95	-0.3	1.0000 
	-8	2	-18	617	499	1212	2.18	0.7	1.0000 
	-8	-2	-18	339	567	864	2.41	0.73	1.0000 
	8	-2	-18	419	614	943	2.23	0.86	1.0000 
	2	-8	18	1008	603	1765	2.21	-0.9	1.0000 
	-2	-8	18	17	864	208	2.41	-0.81	1.0000 
	8	-2	-18	1314	680	2170	2.23	0.86	1.0000 
	-8	-2	-19	34571	5107	41254	-3.8	0.17	1.0000 
	-8	2	-19	39159	4538	39845	0.42	-1.22	1.0000 
	8	2	-19	36833	4108	43751	-3.81	0.2	1.0000 
	8	-2	-19	47632	6218	48303	0.37	-1.12	1.0000 
	-2	-8	19	36559	4728	43418	-3.8	-0.17	1.0000 
	2	-8	-19	44556	4480	45286	0.42	-1.26	1.0000 
	8	-2	-19	42539	5393	43172	0.37	-1.12	1.0000 
	-8	-2	-20	671	832	1170	-1.82	0.49	1.0000 
	-8	2	-20	5	209	306	-3.54	-0.43	1.0000 
	-2	-8	20	2502	1516	3397	-1.8	-0.53	1.0000 
	2	-8	-20	4546	2107	6927	-3.49	-0.45	1.0000 
	8	-2	-20	1804	1128	3372	-3.45	-0.3	1.0000 
	-8	-2	-21	76034	10871	78836	1.15	0.81	1.0000 
	-8	2	-21	82790	10259	74746	3.13	1.48	1.0000 
	8	-2	-21	68622	9079	61266	3.15	1.61	1.0000 
	-8	-2	-22	3722	2065	3137	-1.11	-0.21	1.0000 
	-8	2	-22	1599	573	1617	0.05	0.26	1.0000 
	2	-8	22	7415	2008	7453	0.05	-0.25	1.0000 
	-8	-2	-23	73654	11343	81710	-3.25	-1.37	1.0000 
	-8	2	-23	89936	11569	84048	-2.21	-0.08	1.0000 
	8	2	-23	82286	12517	90784	-3.25	-1.33	1.0000 
	2	-8	23	63429	7996	58479	-2.22	0.02	1.0000 
	-2	-8	23	82098	12297	90528	-3.23	1.43	1.0000 
	-8	2	-24	11953	2937	10093	2.03	1.55	1.0000 
	-2	-8	24	11664	3992	10825	0.88	-0.3	1.0000 
	-8	2	-25	52997	10367	60639	-3.57	-0.37	1.0000 
	2	-8	-25	52855	10672	60442	-3.55	-0.43	1.0000 
	-8	-2	-26	427	559	667	0.99	-1.08	1.0000 
	-8	2	-26	602	463	830	0.95	-0.12	1.0000 
	-8	-2	-27	29468	8743	32607	-1.98	-0.09	1.0000 
	-8	2	-27	34921	8825	32794	-1.32	0.73	1.0000 
	-2	-8	27	28855	9464	31898	-1.94	0.06	1.0000 
	8	-2	-27	41220	10773	38928	-1.31	0.79	1.0000 
	-8	-2	-28	305	311	645	1.04	-1.96	1.0000 
	-8	2	-28	26	162	316	2.81	0.1	1.0000 
	-2	-8	28	762	437	1284	1.1	1.9	1.0000 
	8	-2	-28	2444	1208	3854	2.8	0.13	1.0000 
	-8	-2	-29	9007	3081	10286	1.45	0.1	1.0000 
	-8	2	-29	8434	2606	7842	0.72	0.29	1.0000 
	8	-2	-29	12947	3752	12264	0.66	0.34	1.0000 
	-2	-8	29	8425	2978	9647	1.43	-0.16	1.0000 
	8	-2	-29	11841	3118	11188	0.66	0.34	1.0000 
	-8	3	0	40	225	243	2.05	-0.12	1.0000 
	-8	3	0	167	303	492	2.05	-0.12	1.0000 
	-8	3	0	317	288	733	2.05	-0.12	1.0000 
	-3	-8	0	325	120	517	-2.9	2.7	1.0000 
	3	-8	0	62	136	292	2.04	0.11	1.0000 
	-8	3	1	13713	2419	12646	-1.06	0.53	1.0000 
	-8	3	-1	14218	1858	13058	-1.16	-1	1.0000 
	-8	-3	-1	13082	1492	12033	1.03	0.49	1.0000 
	-8	3	-1	13786	1694	12644	-1.16	-1	1.0000 
	-8	3	1	14310	4270	13219	-1.06	0.53	1.0000 
	-8	3	-1	14294	1739	13131	-1.16	-1	1.0000 
	-8	3	1	13755	2531	12686	-1.06	0.53	1.0000 
	-8	3	-1	13956	1328	12807	-1.16	-1	1.0000 
	-8	3	1	15337	1889	14207	-1.06	0.53	1.0000 
	-3	-8	-1	14972	1919	13888	0.99	0.48	1.0000 
	-3	-8	1	14365	1362	13198	1.1	-0.22	1.0000 
	3	-8	-1	12292	2062	11243	-1.11	-0.73	1.0000 
	3	-8	1	11341	1988	10306	-1.15	0.79	1.0000 
	-8	3	2	4139	1210	4440	-0.55	-3.21	1.0000 
	-8	-3	-2	4493	790	4875	0.49	-1.03	1.0000 
	-8	3	-2	4605	1242	4985	-0.44	3.2	1.0000 
	-8	3	-2	3293	1250	3583	-0.44	3.2	1.0000 
	-8	3	2	3670	1297	3941	-0.55	-3.21	1.0000 
	-8	-3	-2	3542	1144	3880	0.49	-1.03	1.0000 
	-8	3	-2	3909	1015	4244	-0.44	3.2	1.0000 
	-8	3	2	4446	1051	4766	-0.55	-3.21	1.0000 
	-8	-3	-2	4120	868	4486	0.49	-1.03	1.0000 
	-8	3	-2	3009	1439	3277	-0.44	3.2	1.0000 
	-8	3	2	3170	989	3407	-0.55	-3.21	1.0000 
	3	-8	-2	2512	816	2718	-0.52	3.24	1.0000 
	3	-8	2	2791	846	3013	-0.48	-3.16	1.0000 
	-8	3	-3	69560	6504	66676	1.2	-0.75	1.0000 
	-8	3	-3	69274	6458	66396	1.2	-0.75	1.0000 
	-8	3	3	72614	6862	69331	1.33	1.08	1.0000 
	-8	3	-3	68851	6438	65982	1.2	-0.75	1.0000 
	-8	3	-3	72987	6410	70032	1.2	-0.75	1.0000 
	3	-8	3	62814	5501	59893	1.27	1.07	1.0000 
	-8	3	-4	3492	2107	8373	-5.81	4.61	1.0000 
	-8	3	-4	1337	2368	4725	-5.81	4.61	1.0000 
	-8	3	-4	3530	2026	8431	-5.81	4.61	1.0000 
	-8	3	-4	2365	1933	6554	-5.81	4.61	1.0000 
	-3	-8	-4	4361	1907	8039	-4.24	3.45	1.0000 
	-8	3	-5	142110	13131	141231	-0.29	-0.8	1.0000 
	-8	3	-5	140856	13000	139981	-0.29	-0.8	1.0000 
	-8	3	-5	142667	13175	141786	-0.29	-0.8	1.0000 
	-8	3	5	141291	12654	140838	-0.16	0.54	1.0000 
	-8	-3	-5	157043	12886	143143	3.98	-0.05	1.0000 
	-8	3	-5	150679	13474	149774	-0.29	-0.8	1.0000 
	-8	3	-6	7203	3928	12487	-4.8	4.02	1.0000 
	-8	-3	-6	6255	5360	11496	-6.08	1.53	1.0000 
	-8	3	-6	5915	4089	10764	-4.8	4.02	1.0000 
	-8	-3	-6	3749	5827	7982	-6.08	1.53	1.0000 
	-8	-3	-6	8323	4463	14249	-6.08	1.53	1.0000 
	-8	3	-6	8770	3457	14534	-4.8	4.02	1.0000 
	-8	-3	-6	16057	2375	23983	-6.08	1.53	1.0000 
	-8	3	-6	5532	3390	10242	-4.8	4.02	1.0000 
	3	-8	-6	4968	2113	9388	-4.87	3.74	1.0000 
	-8	3	-7	188191	18160	197684	-2.44	-1.65	1.0000 
	-8	-3	-7	196939	30530	203536	1.55	1.98	1.0000 
	-8	3	-7	184380	27542	193777	-2.44	-1.65	1.0000 
	-8	-3	-7	185236	27245	191634	1.55	1.98	1.0000 
	-8	-3	-7	202626	21351	209318	1.55	1.98	1.0000 
	-8	3	-7	185846	17936	195280	-2.44	-1.65	1.0000 
	-8	-3	-7	190020	27650	196500	1.55	1.98	1.0000 
	-8	3	-7	191661	18038	201240	-2.44	-1.65	1.0000 
	-3	-8	8	17966	4140	28500	6.37	-6.16	1.0000 
	3	-8	-8	8776	3534	13624	4.96	-1.85	1.0000 
	-8	3	-9	167299	22738	159294	-2.27	-1.62	1.0000 
	-8	3	-9	157991	21459	150213	-2.27	-1.62	1.0000 
	-8	3	-9	157801	21435	150027	-2.27	-1.62	1.0000 
	-8	3	-9	143794	19241	136375	-2.27	-1.62	1.0000 
	-3	-8	9	165881	22470	159674	1.65	-2.03	1.0000 
	-8	-3	-10	5054	3540	5429	-0.09	-1.89	1.0000 
	-8	-3	-10	2925	3646	3195	-0.09	-1.89	1.0000 
	-8	3	-10	3070	4129	3940	-1.25	1.8	1.0000 
	8	3	10	2366	3375	2603	-0.09	1.89	1.0000 
	-8	3	-11	148533	38345	151013	-0.73	-0.67	1.0000 
	-8	3	-11	151702	38981	154208	-0.73	-0.67	1.0000 
	3	-8	11	105911	15597	107834	-0.67	0.63	1.0000 
	-3	-8	11	127287	17968	124360	-0.92	-0.14	1.0000 
	-8	-3	11	116582	16412	113741	-0.93	-0.17	1.0000 
	3	-8	-11	133116	34172	135126	-0.63	-0.82	1.0000 
	-8	3	12	3206	2116	4194	1.68	0.88	1.0000 
	-8	3	12	3772	2200	4839	1.68	0.88	1.0000 
	-8	3	-12	3762	1569	4838	1.63	-1.11	1.0000 
	-8	-3	12	6423	1736	12482	-0.77	8.13	1.0000 
	3	-8	-12	14299	4688	16757	1.56	-2.04	1.0000 
	-8	3	-13	68883	4728	69695	0.29	-1.27	1.0000 
	-8	-3	-13	63031	2133	69615	-2.81	-0.86	1.0000 
	3	-8	13	65794	2529	66840	0.41	1	1.0000 
	-3	-8	13	65079	1864	71609	-2.74	0.77	1.0000 
	-8	3	-14	753	791	1186	2.01	-4.33	1.0000 
	-8	-3	-14	615	730	1319	3.26	-5.14	1.0000 
	3	-8	14	997	522	1502	1.96	4.18	1.0000 
	-8	3	-15	12201	3620	13814	-1.53	1.22	1.0000 
	3	-8	15	13604	3526	15247	-1.47	-1.29	1.0000 
	-8	-3	15	6613	2152	10218	4.38	0.3	1.0000 
	3	-8	-15	18471	3368	20475	-1.54	1.24	1.0000 
	-8	3	-16	35	55	50	-1.34	-2.53	1.0000 
	8	3	-16	28	123	217	-1.89	-1	1.0000 
	3	-8	16	2	122	161	-1.3	2.69	1.0000 
	-3	-8	16	26	260	217	-1.87	1.13	1.0000 
	-8	-3	16	1	60	87	-1.89	1	1.0000 
	3	-8	-16	68	194	436	-1.29	-2.5	1.0000 
	8	-3	-16	4	127	135	-1.23	-2.68	1.0000 
	-8	-3	-17	958	421	1141	0.25	-2.13	1.0000 
	-8	3	-17	1309	440	1175	0.38	0.66	1.0000 
	8	3	-17	1443	522	1680	0.27	-2.03	1.0000 
	8	-3	-17	1929	513	1754	0.42	0.61	1.0000 
	3	-8	17	1865	477	1694	0.42	-0.65	1.0000 
	-3	-8	17	1811	644	2102	0.27	2.14	1.0000 
	-8	-3	17	847	326	1012	0.27	2.03	1.0000 
	3	-8	-17	2385	641	2202	0.39	0.62	1.0000 
	8	-3	-17	2108	553	1925	0.42	0.61	1.0000 
	-8	-3	-18	357	251	444	-0.42	0.83	1.0000 
	-8	3	-18	1100	223	662	2.2	1.6	1.0000 
	8	-3	-18	1775	566	1251	2.21	1.7	1.0000 
	3	-8	18	847	161	463	2.2	-1.65	1.0000 
	-3	-8	18	1385	498	1557	-0.39	-0.85	1.0000 
	-8	-3	18	454	176	557	-0.41	-0.99	1.0000 
	3	-8	-18	1607	383	1095	2.19	1.63	1.0000 
	8	-3	-18	1358	312	891	2.21	1.7	1.0000 
	-8	-3	-19	27571	3221	27343	0.16	0.16	1.0000 
	-8	3	-19	22550	4299	22112	-0.36	0.67	1.0000 
	8	3	-19	29646	2808	29503	0.1	0.22	1.0000 
	3	-8	19	27677	2750	27242	-0.32	-0.69	1.0000 
	3	-8	-19	32328	4416	31772	-0.38	0.68	1.0000 
	8	-3	-19	31900	4275	31393	-0.35	0.69	1.0000 
	-8	-3	-20	375	1024	1843	4.97	2.18	1.0000 
	-8	3	-20	107	398	814	3.9	2.1	1.0000 
	8	3	-20	1247	1398	3535	4.97	2.41	1.0000 
	3	-8	-20	2995	1938	5448	3.87	2.12	1.0000 
	8	-3	-20	1679	1167	3581	3.83	2.14	1.0000 
	-8	-3	-21	63642	9373	68468	2.14	1.86	1.0000 
	-8	3	-21	61263	8975	65023	-1.6	-1.2	1.0000 
	8	-3	-21	77286	11851	81455	-1.58	-1.19	1.0000 
	-3	-8	21	67932	10073	72888	2.13	-1.94	1.0000 
	8	-3	-21	59094	10158	62743	-1.58	-1.19	1.0000 
	-8	-3	-22	171	505	576	1.92	2.03	1.0000 
	-8	3	-22	79	529	566	2.12	3.79	1.0000 
	8	-3	-22	2589	1432	4666	2.07	3.72	1.0000 
	-8	-3	-23	73274	12715	75335	-0.79	0.83	1.0000 
	-8	3	-23	74263	12286	72942	-0.52	-0.54	1.0000 
	8	3	-23	81486	14205	83704	-0.8	0.89	1.0000 
	8	-3	-23	54342	9643	53238	-0.51	-0.46	1.0000 
	-8	-3	-24	2963	1776	3063	-0.19	0.44	1.0000 
	-8	3	-24	228	198	186	0.32	0.01	1.0000 
	8	3	-24	7645	2283	7807	-0.2	0.3	1.0000 
	-3	-8	24	7282	3440	7468	-0.23	-0.36	1.0000 
	8	3	-25	53154	14537	60292	3.36	0.94	1.0000 
	-3	-8	25	47977	13400	54809	3.38	-0.98	1.0000 
	3	-8	-25	56493	13742	56276	0.07	0.75	1.0000 
	-8	-3	-26	27	287	276	2.54	0.24	1.0000 
	-8	3	-26	463	328	594	0.09	-1.55	1.0000 
	8	3	-26	1372	786	2358	2.55	0.1	1.0000 
	3	-8	-26	1090	582	1270	0.08	-1.39	1.0000 
	8	3	-26	2042	1069	3215	2.55	0.1	1.0000 
	-8	3	-27	12005	4845	14726	2.62	0.17	1.0000 
	-8	-3	-27	35070	8586	28745	3.9	0.75	1.0000 
	8	3	-27	32871	7698	26732	3.92	0.77	1.0000 
	8	-3	-27	30570	9456	34816	2.61	0.1	1.0000 
	8	3	-27	33075	7489	26916	3.92	0.77	1.0000 
	-8	3	-28	51	106	152	-1.14	-0.4	1.0000 
	-8	-3	-28	240	295	517	-1.59	-0.31	1.0000 
	8	3	-28	350	325	677	-1.61	-0.32	1.0000 
	8	-3	-28	506	331	772	-1.17	-0.19	1.0000 
	-3	-8	28	423	343	771	-1.59	0.2	1.0000 
	8	3	-28	246	258	529	-1.61	-0.32	1.0000 
	8	-3	-28	738	446	1053	-1.17	-0.19	1.0000 
	-8	3	-29	3251	1402	3331	-0.15	0.06	1.0000 
	-8	-3	-29	8330	2431	7564	-0.94	-0.39	1.0000 
	8	-3	-29	8999	2690	9137	-0.16	0.07	1.0000 
	8	3	-29	8785	2333	7992	-0.94	-0.41	1.0000 
	-3	-8	29	7788	2061	7036	-0.95	0.37	1.0000 
	8	-3	-29	9024	2566	9162	-0.16	0.07	1.0000 
	8	3	-29	8319	2090	7548	-0.94	-0.41	1.0000 
	-8	-4	0	133	247	383	1.82	-1.53	1.0000 
	-8	4	0	617	230	291	-1.71	0.58	1.0000 
	-4	-8	0	414	207	833	1.8	-1.49	1.0000 
	4	-8	0	755	204	410	-1.81	0.33	1.0000 
	-8	4	1	12272	3095	11801	-0.49	-1.18	1.0000 
	-8	-4	1	11216	2746	9762	1.88	2.78	1.0000 
	-8	-4	1	16150	3456	14432	1.88	2.78	1.0000 
	-8	4	-1	12273	3793	11809	-0.47	1.05	1.0000 
	-8	4	1	10046	2912	9618	-0.49	-1.18	1.0000 
	-8	4	1	10105	1514	9676	-0.49	-1.18	1.0000 
	-4	-8	-1	15159	3360	13574	1.95	-3.46	1.0000 
	4	-8	1	6150	3038	5797	-0.51	-1.18	1.0000 
	-8	4	-2	3843	1712	5313	1.83	-3.36	1.0000 
	-8	4	2	3959	1649	5516	1.91	3.43	1.0000 
	-8	4	-2	2202	1975	3297	1.83	-3.36	1.0000 
	-8	4	-2	4477	2037	6069	1.83	-3.36	1.0000 
	-8	4	2	3366	1449	4796	1.91	3.43	1.0000 
	-8	4	-2	3114	927	4430	1.83	-3.36	1.0000 
	-8	4	2	2658	1328	3921	1.91	3.43	1.0000 
	-4	-8	-2	4344	1431	5988	2.55	0.12	1.0000 
	4	-8	-2	2256	765	3406	1.94	-3.25	1.0000 
	-8	4	-3	41248	6195	36420	2.71	-2.28	1.0000 
	-8	4	-3	35581	5400	31100	2.71	-2.28	1.0000 
	-8	4	-3	38872	5533	34186	2.71	-2.28	1.0000 
	-8	4	-3	36832	4697	32272	2.71	-2.28	1.0000 
	-8	4	3	36108	4633	31713	2.63	2.02	1.0000 
	-4	-8	-3	53625	6740	46802	-3.45	1.33	1.0000 
	-8	-4	-4	2238	1676	4542	-4.45	-0.11	1.0000 
	-8	4	-4	2901	1208	3763	-1.66	-0.55	1.0000 
	-8	4	-4	1440	1692	2061	-1.66	-0.55	1.0000 
	-8	-4	-4	1432	1728	3355	-4.45	-0.11	1.0000 
	-8	4	-4	4816	1436	5912	-1.66	-0.55	1.0000 
	-8	-4	-4	2598	1686	5049	-4.45	-0.11	1.0000 
	-8	4	-4	2162	1697	2913	-1.66	-0.55	1.0000 
	-8	-4	-4	2147	1833	4412	-4.45	-0.11	1.0000 
	8	-4	-4	2916	1405	3751	-1.61	-0.22	1.0000 
	-4	-8	4	2147	1218	4371	-4.39	0.47	1.0000 
	4	-8	4	3091	1125	3988	-1.68	0.32	1.0000 
	-8	4	5	66537	10774	66819	0.12	-0.11	1.0000 
	-8	-4	-5	69885	9184	60719	3.99	-0.47	1.0000 
	-8	4	-5	62089	10472	62159	0.03	-0.01	1.0000 
	-8	4	-5	56329	9710	56395	0.03	-0.01	1.0000 
	-8	-4	-5	65272	8754	56425	3.99	-0.47	1.0000 
	-8	4	5	64048	10335	64324	0.12	-0.11	1.0000 
	-8	4	-5	60815	9680	60884	0.03	-0.01	1.0000 
	-8	-4	-5	68425	8903	59359	3.99	-0.47	1.0000 
	-8	4	-5	58266	8596	58333	0.03	-0.01	1.0000 
	-8	-4	-5	70554	8913	61343	3.99	-0.47	1.0000 
	8	-4	-5	59779	8516	60046	0.12	0.11	1.0000 
	-4	-8	-5	80066	10019	70137	4.02	-0.25	1.0000 
	-4	-8	5	65275	8059	56644	3.89	0.44	1.0000 
	-8	-4	-6	2483	3357	4970	-4.55	-0.66	1.0000 
	-8	-4	-6	309	2131	1461	-4.55	-0.66	1.0000 
	-8	-4	-6	4439	3987	7621	-4.55	-0.66	1.0000 
	-8	-4	-6	9788	2206	14308	-4.55	-0.66	1.0000 
	-8	4	-6	10660	2481	16263	-4.23	-4.18	1.0000 
	-4	-8	6	9175	2820	13516	-4.52	0.31	1.0000 
	4	-8	-6	4426	2037	8423	-4.13	-4.89	1.0000 
	-8	-4	-7	54880	9547	63628	4.01	0.74	1.0000 
	-8	4	-7	76084	9394	62693	5.59	2.45	1.0000 
	-8	-4	-7	55044	9555	63804	4.01	0.74	1.0000 
	-8	-4	-7	54022	9405	62704	4.01	0.74	1.0000 
	-8	4	-7	81076	10150	67236	5.59	2.45	1.0000 
	-8	-4	7	62697	10712	71849	3.94	-0.85	1.0000 
	-8	-4	-7	56072	9451	64911	4.01	0.74	1.0000 
	-8	4	-7	80043	9956	66295	5.59	2.45	1.0000 
	-4	-8	7	57784	9691	66687	3.98	-0.74	1.0000 
	-8	4	8	8491	2156	7891	-0.74	-0.58	1.0000 
	-8	-4	-8	8807	3771	7278	-2.95	-4.86	1.0000 
	-8	4	-8	4266	2396	3801	-0.82	0.83	1.0000 
	-8	-4	-8	4431	4192	3196	-2.95	-4.86	1.0000 
	-8	4	8	11014	2366	10331	-0.74	-0.58	1.0000 
	-8	-4	-8	11429	3418	9762	-2.95	-4.86	1.0000 
	-8	4	-8	8049	1552	7411	-0.82	0.83	1.0000 
	8	-4	-8	11575	2686	10874	-0.74	0.58	1.0000 
	-4	-8	8	13263	3320	11769	-2.96	5.42	1.0000 
	4	-8	-8	7801	1758	7234	-0.73	0.55	1.0000 
	-8	4	-9	38857	9117	42657	2.05	-0.69	1.0000 
	-8	4	-9	41684	6196	45617	2.05	-0.69	1.0000 
	-8	4	-9	50966	7354	55306	2.05	-0.69	1.0000 
	-8	4	-9	43658	1531	47681	2.05	-0.69	1.0000 
	-4	-8	9	49438	1486	51857	-1.25	-3.81	1.0000 
	-8	4	-10	7132	2102	4394	4.02	-0.45	1.0000 
	-8	4	-10	9673	1893	6431	4.02	-0.45	1.0000 
	-4	-8	10	11370	1994	9001	2.64	-0.67	1.0000 
	-8	4	-11	30222	2271	38156	-4.74	0.6	1.0000 
	8	-4	-11	32723	1253	40999	-4.77	0.32	1.0000 
	-4	-8	11	31900	1275	38397	3.84	-0.1	1.0000 
	-4	-8	12	3153	1286	3882	1.35	-0.96	1.0000 
	-8	4	-13	7602	2212	6708	-1.13	1.38	1.0000 
	-8	-4	13	15923	2359	13048	2.78	1.97	1.0000 
	-4	-8	13	20206	3236	16981	2.76	1.91	1.0000 
	4	-8	-13	23305	3571	21669	-1.2	1.5	1.0000 
	-8	4	-14	84	78	50	1.33	3.28	1.0000 
	8	-4	-14	35	225	410	1.31	3.26	1.0000 
	8	4	-14	63	108	340	-0.83	2.24	1.0000 
	-8	-4	14	117	159	457	-0.83	-2.24	1.0000 
	-4	-8	14	136	323	509	-0.81	-2.33	1.0000 
	4	-8	-14	364	450	1162	1.22	3.25	1.0000 
	8	-4	-14	716	499	1764	1.31	3.26	1.0000 
	-8	4	-15	499	377	832	-1.42	-1.74	1.0000 
	-8	-4	-15	895	594	1170	0.95	0.02	1.0000 
	8	-4	-15	1041	479	1518	-1.42	-1.5	1.0000 
	8	4	-15	1317	503	1659	0.98	0	1.0000 
	-8	-4	15	625	243	867	0.98	0	1.0000 
	-4	-8	15	1409	532	1752	0.96	0.03	1.0000 
	4	-8	-15	916	427	1380	-1.45	-1.69	1.0000 
	-8	4	-16	1732	250	565	4.02	1.93	1.0000 
	-8	-4	-16	1954	332	855	3.31	0.91	1.0000 
	8	4	-16	2703	435	1377	3.29	0.7	1.0000 
	8	-4	-16	2945	414	1371	4.04	2.16	1.0000 
	-8	-4	16	2163	299	999	3.29	-0.7	1.0000 
	-4	-8	16	2600	405	1297	3.31	-0.8	1.0000 
	4	-8	-16	3356	582	1674	3.99	2.07	1.0000 
	8	-4	-16	2866	397	1315	4.04	2.16	1.0000 
	-8	4	-17	2624	993	2172	1.07	0.78	1.0000 
	-8	-4	-17	4718	1559	4011	-1.2	0.36	1.0000 
	8	4	-17	6242	949	5425	-1.21	0.47	1.0000 
	8	-4	-17	5842	1722	5142	1.1	0.73	1.0000 
	-4	-8	17	6304	945	5491	-1.2	-0.48	1.0000 
	-8	-4	17	4583	1177	3886	-1.21	-0.47	1.0000 
	4	-8	-17	6150	802	5446	1.08	0.79	1.0000 
	8	-4	-17	6331	889	5602	1.1	0.73	1.0000 
	-8	4	-18	403	100	46	-3.78	-4.01	1.0000 
	-8	-4	-18	490	313	278	-1.71	-1.51	1.0000 
	8	4	-18	1148	279	837	-1.7	-1.44	1.0000 
	-4	-8	18	884	249	604	-1.7	1.44	1.0000 
	-8	-4	18	738	157	478	-1.7	1.44	1.0000 
	4	-8	-18	478	431	1214	-3.84	-3.99	1.0000 
	8	-4	-18	295	230	734	-3.85	-4.09	1.0000 
	-8	4	-19	4183	2729	4730	0.99	1.63	1.0000 
	8	4	-19	23133	3408	19858	2.47	0.31	1.0000 
	-8	-4	19	16312	3411	13582	2.47	-0.31	1.0000 
	-4	-8	19	24533	4153	21161	2.46	-0.37	1.0000 
	4	-8	-19	22031	4233	23384	1.02	1.58	1.0000 
	8	-4	-19	16664	3238	17837	1.02	1.46	1.0000 
	-8	4	-20	34	240	268	-2.71	-4.08	1.0000 
	-8	-4	20	31	253	632	-3.72	2.35	1.0000 
	4	-8	-20	290	516	1506	-2.68	-4.03	1.0000 
	8	-4	-20	518	709	2024	-2.73	-4.11	1.0000 
	-8	4	-21	18940	3997	19515	-0.49	-0.79	1.0000 
	-8	-4	-21	30328	4977	26869	-2.23	-1.04	1.0000 
	-8	-4	21	19140	3553	16432	-2.21	1.17	1.0000 
	4	-8	-21	33996	6832	34758	-0.49	-0.96	1.0000 
	8	-4	-21	29965	5811	30732	-0.52	-1.05	1.0000 
	-8	4	-22	39	154	141	-0.91	-3.18	1.0000 
	-8	-4	-22	460	525	823	1.51	-0.74	1.0000 
	8	4	-22	723	577	1132	1.47	-0.43	1.0000 
	-8	-4	22	302	237	581	1.47	0.43	1.0000 
	8	-4	-22	303	331	857	-0.79	-3.06	1.0000 
	-8	4	-23	13404	5027	14621	1.13	-0.11	1.0000 
	8	4	-23	34690	8067	31847	1.73	0.02	1.0000 
	8	-4	-23	22309	6074	23864	1.12	-0.23	1.0000 
	-8	4	-24	84	123	157	-0.75	-0.07	1.0000 
	-8	-4	-24	1276	516	735	1.98	0.68	1.0000 
	8	4	-24	2229	753	1506	1.96	0.74	1.0000 
	4	-8	-24	1350	748	1608	-0.74	-0.02	1.0000 
	8	-4	-24	654	371	836	-0.74	0.04	1.0000 
	-8	4	-25	4381	2007	4994	-1.03	-0.55	1.0000 
	-8	-4	-25	16662	4395	15176	-1.3	-0.06	1.0000 
	8	4	-25	18188	5018	16651	-1.29	0.01	1.0000 
	4	-8	-25	16383	5208	17545	-1.02	-0.59	1.0000 
	8	4	-25	16622	4319	15154	-1.29	0.01	1.0000 
	-8	-4	-26	739	423	719	-0.09	-0.17	1.0000 
	8	4	-26	744	323	712	-0.14	-0.07	1.0000 
	-4	-8	26	1133	334	1101	-0.12	0.16	1.0000 
	4	-8	-26	542	276	509	-0.29	1.33	1.0000 
	8	4	-26	1216	374	1175	-0.14	-0.07	1.0000 
	-8	-4	-27	11992	3674	12091	-0.08	0.28	1.0000 
	8	4	-27	10020	2877	10133	-0.11	0.25	1.0000 
	-4	-8	27	12274	3585	12394	-0.11	-0.2	1.0000 
	4	-8	-27	9941	2403	7923	-2.34	-0.82	1.0000 
	8	4	-27	8396	2340	8499	-0.11	0.25	1.0000 
	-8	-5	0	436	511	1577	4.21	-0.82	1.0000 
	-8	-5	0	178	463	1026	4.21	-0.82	1.0000 
	-8	-5	0	354	483	1414	4.21	-0.82	1.0000 
	-5	-8	0	847	814	2303	4.2	-0.99	1.0000 
	5	-8	0	779	420	1342	1.96	-0.43	1.0000 
	-8	-5	-1	1852	980	3222	-2.93	1.69	1.0000 
	-8	-5	1	1891	979	3351	-3.03	-2.1	1.0000 
	-8	-5	-1	768	668	1699	-2.93	1.69	1.0000 
	-8	-5	1	1020	755	2127	-3.03	-2.1	1.0000 
	-8	-5	-1	1554	975	2820	-2.93	1.69	1.0000 
	-8	-5	1	1975	1023	3464	-3.03	-2.1	1.0000 
	-8	-5	-1	1495	939	2740	-2.93	1.69	1.0000 
	5	-8	-1	1700	880	2947	2.81	1.5	1.0000 
	5	-8	1	1759	898	3058	2.9	-1.27	1.0000 
	-8	-5	2	7397	1943	6369	-1.75	-4.07	1.0000 
	-8	-5	2	5204	1580	4288	-1.75	-4.07	1.0000 
	-8	-5	-2	7154	1874	6082	-1.84	4.09	1.0000 
	-8	-5	2	5270	1523	4351	-1.75	-4.07	1.0000 
	8	-5	-2	5770	1578	5294	-0.72	-0.16	1.0000 
	-5	-8	2	8043	1886	7017	-1.75	-4.24	1.0000 
	-8	-5	3	787	658	1318	1.83	-0.09	1.0000 
	-8	-5	-3	1491	733	2240	1.93	0.14	1.0000 
	8	-5	-3	1726	630	2143	-0.82	2.31	1.0000 
	-5	-8	3	2234	1205	3103	1.87	-0.15	1.0000 
	5	-8	3	1641	613	2066	-0.9	-2.18	1.0000 
	-8	-5	-4	10920	1391	8189	3.15	-1.86	1.0000 
	-8	-5	-4	7977	2080	5660	3.15	-1.86	1.0000 
	-8	-5	-4	10515	1360	7837	3.15	-1.86	1.0000 
	-8	-5	4	11618	1899	8851	3.07	1.65	1.0000 
	-5	-8	4	9387	698	6927	3.06	1.81	1.0000 
	-8	-5	5	1729	776	2421	-1.63	1.38	1.0000 
	-8	-5	-5	1480	621	2114	-1.6	-1.5	1.0000 
	-8	-5	-5	1047	661	1583	-1.6	-1.5	1.0000 
	-8	-5	5	1981	780	2720	-1.63	1.38	1.0000 
	-8	-5	-5	2116	923	2871	-1.6	-1.5	1.0000 
	-8	-5	-5	1805	954	2504	-1.6	-1.5	1.0000 
	-8	-5	5	2561	1129	3397	-1.63	1.38	1.0000 
	5	-8	5	2122	758	2407	0.66	0.1	1.0000 
	-8	-5	6	1863	1020	3575	3.63	1.04	1.0000 
	-8	-5	6	1691	1012	3334	3.63	1.04	1.0000 
	-8	-5	-6	1611	1201	3166	3.52	-1.12	1.0000 
	-8	-5	-7	1499	594	1758	0.56	-1.39	1.0000 
	8	5	-7	1689	619	1924	0.53	-0.96	1.0000 
	8	-5	-7	1761	620	2080	-0.68	-1.37	1.0000 
	-5	-8	7	1838	692	2101	0.56	1.06	1.0000 
	5	-8	-7	1849	663	2178	-0.68	-1.4	1.0000 
	-8	-5	-8	44	163	180	-3.82	2.24	1.0000 
	8	5	-8	54	85	165	-3.82	2.29	1.0000 
	8	-5	-8	17	68	71	-2.78	-0.25	1.0000 
	-5	-8	8	203	160	37	-3.87	-2.3	1.0000 
	5	-8	-8	22	211	297	-2.76	-0.31	1.0000 
	-8	-5	-9	174	120	11	-1.98	-2.27	1.0000 
	8	5	-9	379	136	318	-1.89	-2.27	1.0000 
	8	-5	-9	47	108	78	-0.45	-0.25	1.0000 
	-5	-8	9	190	140	58	-1.97	2.33	1.0000 
	5	-8	-9	76	102	110	-0.39	-0.25	1.0000 
	-8	-5	-10	3197	1013	3278	-0.13	0.6	1.0000 
	8	-5	-10	4158	966	3458	1.25	-0.49	1.0000 
	8	5	-10	3763	1103	3863	-0.13	0.87	1.0000 
	-5	-8	10	3452	1162	3535	-0.13	-0.62	1.0000 
	-8	-5	10	2987	953	3074	-0.13	-0.87	1.0000 
	5	-8	-10	4878	1195	4085	1.31	-0.22	1.0000 
	8	-5	-10	6158	1544	5301	1.25	-0.49	1.0000 
	8	-5	-11	225	175	531	1.78	-0.05	1.0000 
	-5	-8	11	328	259	717	-1.92	0.1	1.0000 
	-8	-5	11	306	209	678	-1.89	0.18	1.0000 
	5	-8	-11	268	332	605	1.82	-0.07	1.0000 
	8	-5	-11	692	381	1180	1.78	-0.05	1.0000 
	-8	-5	-12	7864	2044	7976	0.14	1.19	1.0000 
	8	-5	-12	8468	1721	8147	-0.65	-2.63	1.0000 
	-8	-5	12	7386	1685	7472	0.12	-0.86	1.0000 
	-5	-8	12	8193	1947	8263	0.1	-0.78	1.0000 
	5	-8	-12	10218	2108	9893	-0.6	-2.43	1.0000 
	8	-5	-12	11254	2188	10906	-0.65	-2.63	1.0000 
	8	-5	-13	467	374	933	-1.98	-0.32	1.0000 
	8	-5	-13	1548	724	2332	-1.98	-0.32	1.0000 
	-8	-5	-14	5685	1444	6935	-1.76	-0.7	1.0000 
	8	-5	-14	8123	1185	8725	-0.73	-1.34	1.0000 
	5	-8	-14	9215	1418	9834	-0.7	-1.49	1.0000 
	8	-5	-14	9819	1612	10484	-0.73	-1.34	1.0000 
	-8	-5	-15	652	383	947	-1.12	-0.87	1.0000 
	8	5	-15	621	318	910	-1.11	-1.01	1.0000 
	8	-5	-15	484	313	1001	2.14	0.03	1.0000 
	-8	-5	15	554	263	827	-1.11	1.01	1.0000 
	-5	-8	15	1118	508	1505	-1.13	0.91	1.0000 
	5	-8	-15	881	533	1552	2.15	0.13	1.0000 
	8	-5	-15	387	287	860	2.14	0.03	1.0000 
	-8	-5	-16	1715	941	2543	1.98	-0.27	1.0000 
	8	5	-16	1692	831	2482	1.92	-0.17	1.0000 
	8	-5	-16	1869	814	2505	1.5	-0.14	1.0000 
	-8	-5	16	1595	780	2364	1.92	0.17	1.0000 
	-5	-8	16	2089	1021	2973	1.95	0.14	1.0000 
	5	-8	-16	2695	1091	3455	1.51	-0.15	1.0000 
	-8	-5	-17	2878	1004	3048	0.33	0.79	1.0000 
	8	5	-17	3343	1101	3532	0.35	0.65	1.0000 
	-5	-8	17	3602	1304	3791	0.34	-0.64	1.0000 
	-8	-5	17	2594	879	2760	0.35	-0.65	1.0000 
	5	-8	-17	4911	1336	4793	0.19	-0.01	1.0000 
	-8	-5	-18	5193	1527	4428	1.23	0.19	1.0000 
	8	5	-18	6466	1528	5642	1.18	0.08	1.0000 
	-5	-8	18	7699	1863	6786	1.19	-0.05	1.0000 
	-8	-5	18	5103	1301	4374	1.18	-0.08	1.0000 
	5	-8	-18	6541	1828	7092	-0.74	0.07	1.0000 
	-8	-5	-19	1460	549	1286	0.52	-0.2	1.0000 
	8	-5	-19	2951	667	2235	-1.56	-0.52	1.0000 
	8	5	-19	2244	602	2032	0.5	-0.26	1.0000 
	-8	-5	19	1595	510	1417	0.5	0.26	1.0000 
	5	-8	-19	2948	660	2230	-1.57	-0.48	1.0000 
	8	-5	-19	3334	760	2570	-1.56	-0.52	1.0000 
	8	-5	-20	4966	1434	4839	-0.2	0.12	1.0000 
	8	5	-20	4961	1186	4048	-1.52	-0.25	1.0000 
	-8	-5	20	4599	1055	3721	-1.52	0.25	1.0000 
	8	-5	-20	4749	1348	4625	-0.2	0.12	1.0000 
	5	-8	-20	5102	1386	4965	-0.21	0.16	1.0000 
	8	5	-21	1588	563	1857	0.67	-0.92	1.0000 
	8	-5	-21	2155	611	2015	0.34	0.67	1.0000 
	-8	-5	21	1429	524	1684	0.67	0.92	1.0000 
	-5	-8	21	2089	796	2406	0.69	0.91	1.0000 
	5	-8	-21	2202	639	2052	0.36	0.73	1.0000 
	8	-5	-21	2591	758	2439	0.34	0.67	1.0000 
	8	5	-22	966	374	853	0.42	-0.02	1.0000 
	8	-5	-22	1005	514	1105	-0.34	0.01	1.0000 
	-5	-8	22	1669	671	1523	0.4	0.03	1.0000 
	-8	-5	22	910	353	800	0.42	0.02	1.0000 
	8	-5	-22	774	374	862	-0.34	0.01	1.0000 
	8	-5	-22	1223	575	1333	-0.34	0.01	1.0000 
	8	5	-23	1933	617	2099	-0.41	-0.37	1.0000 
	8	-5	-23	2812	883	2782	-0.09	0.62	1.0000 
	-8	-5	23	1458	701	1602	-0.41	0.37	1.0000 
	-5	-8	23	2135	743	2314	-0.42	0.33	1.0000 
	8	-5	-23	2032	621	2006	-0.09	0.62	1.0000 
	8	-5	-23	2176	665	2149	-0.09	0.62	1.0000 
	8	5	-23	1094	530	1219	-0.41	-0.37	1.0000 
	8	5	-24	39	78	-37	1.34	0.35	1.0000 
	8	-5	-24	31	111	160	1.43	0.69	1.0000 
	-5	-8	24	56	131	189	1.34	-0.39	1.0000 
	-8	-5	24	1	54	31	1.34	-0.35	1.0000 
	8	-5	-24	21	121	135	1.43	0.69	1.0000 
	8	5	-24	2	69	23	1.34	0.35	1.0000 
	8	-5	-24	10	77	16	1.43	0.69	1.0000 
	8	5	-25	187	178	357	1.16	0.21	1.0000 
	8	-5	-25	425	333	697	-1.28	0.45	1.0000 
	-5	-8	25	402	318	631	1.13	-0.17	1.0000 
	-8	-5	25	120	130	262	1.16	-0.21	1.0000 
	5	-8	-25	290	248	519	-1.27	0.44	1.0000 
	8	-5	-25	118	151	275	-1.28	0.45	1.0000 
	8	5	-25	44	78	139	1.16	0.21	1.0000 
	8	-5	-25	219	215	422	-1.28	0.45	1.0000 
	8	-5	-26	946	351	852	-0.35	0.46	1.0000 
	-5	-8	26	1426	426	962	-1.53	0.39	1.0000 
	5	-8	-26	663	284	588	-0.32	0.4	1.0000 
	8	-5	-26	711	275	629	-0.35	0.46	1.0000 
	-8	-6	0	0	93	269	2.86	2.3	1.0000 
	6	-8	0	4	379	1027	6.98	1	1.0000 
	-8	-6	1	32	119	137	-1.39	-0.19	1.0000 
	6	-8	1	44	218	464	-1.99	2.91	1.0000 
	6	-8	-1	112	279	629	-2.03	-2.67	1.0000 
	-8	-6	2	13650	2627	11601	-2.02	-1.07	1.0000 
	-6	-8	2	17496	3084	15108	-2.07	-0.77	1.0000 
	-8	-6	3	8319	1796	10276	-2.27	0.72	1.0000 
	-6	-8	-3	11549	2308	13845	-2.28	-0.95	1.0000 
	-6	-8	3	7796	1624	9723	-2.31	0.68	1.0000 
	-8	-6	-4	13359	2585	14709	-1.27	-0.84	1.0000 
	-6	-8	4	13556	3068	14890	-1.24	0.76	1.0000 
	-8	-6	-5	19298	4055	22874	2.73	-0.11	1.0000 
	8	6	-5	16685	3489	19988	2.69	-0.37	1.0000 
	-6	-8	5	17942	3365	21298	2.64	0.35	1.0000 
	-8	-6	-6	3282	1934	5344	3.5	0.97	1.0000 
	8	6	-6	4498	1417	6887	3.52	0.93	1.0000 
	-6	-8	6	5978	2655	8685	3.51	-0.96	1.0000 
	-8	-6	-7	25346	4289	26356	-0.71	-0.24	1.0000 
	-6	-8	7	19767	3672	20754	-0.77	0.04	1.0000 
	-8	-6	-8	501	618	225	2.36	6.82	1.0000 
	-6	-8	8	1802	1729	4469	2.53	-7.37	1.0000 
	-8	-6	8	1252	1179	3447	2.5	-7.38	1.0000 
	-8	-6	-9	30320	2653	27801	-1.67	-0.57	1.0000 
	-6	-8	9	28208	2991	25737	-1.68	0.25	1.0000 
	-6	-8	10	2494	1763	5334	-5.1	-0.45	1.0000 
	8	-6	-10	4737	1107	7769	-4.28	-0.12	1.0000 
	-6	-8	11	16827	2089	16114	0.61	0.11	1.0000 
	8	-6	-11	31882	5038	29816	-1.34	0.76	1.0000 
	-8	-6	-12	3756	2452	3942	0.34	0.42	1.0000 
	-6	-8	12	6545	1284	6752	0.29	-0.29	1.0000 
	8	-6	-12	9974	1229	8412	-1.8	0.15	1.0000 
	8	-6	-13	2684	1363	5143	-4.4	0.31	1.0000 
	-6	-8	13	4877	1732	5892	1.54	2.64	1.0000 
	6	-8	-13	4134	1869	7040	-4.33	0.34	1.0000 
	8	-6	-13	4415	2015	7457	-4.4	0.31	1.0000 
	8	-6	-14	3085	856	2742	0.73	0.46	1.0000 
	-6	-8	14	3524	1102	3142	0.72	0.99	1.0000 
	6	-8	-14	4935	1217	4527	0.69	0.42	1.0000 
	8	-6	-14	4782	1158	4354	0.73	0.46	1.0000 
	-8	-6	-15	32	120	9	0.08	-1.77	1.0000 
	8	-6	-15	19	71	65	-2.66	0.66	1.0000 
	-8	-6	15	20	186	91	0.03	1.97	1.0000 
	-6	-8	15	74	222	-45	0.06	1.91	1.0000 
	6	-8	-15	232	410	756	-2.62	0.79	1.0000 
	8	-6	-15	37	194	335	-2.66	0.66	1.0000 
	-8	-6	-16	148	125	132	-5.1	-0.49	1.0000 
	8	-6	-16	62	149	239	-5.08	0.52	1.0000 
	-8	-6	16	262	112	52	-5.1	0.5	1.0000 
	-6	-8	16	537	220	-35	-5.1	0.55	1.0000 
	6	-8	-16	64	207	239	-5.11	0.57	1.0000 
	8	-6	-16	90	109	190	-5.08	0.52	1.0000 
	-8	-6	-17	796	334	803	-0.03	-0.18	1.0000 
	8	-6	-17	658	359	917	1.04	-0.33	1.0000 
	-6	-8	17	1404	536	1403	-0.01	0.25	1.0000 
	-8	-6	17	957	361	963	-0.03	0.26	1.0000 
	6	-8	-17	867	436	1154	1.01	-0.38	1.0000 
	8	-6	-17	846	469	1137	1.04	-0.33	1.0000 
	-8	-6	-18	2389	675	2115	0.87	1.58	1.0000 
	8	-6	-18	2707	767	2612	0.44	1.61	1.0000 
	-6	-8	18	3359	908	3036	0.88	-1.55	1.0000 
	-8	-6	18	2773	716	2475	0.87	-1.51	1.0000 
	6	-8	-18	3372	926	3235	0.51	1.59	1.0000 
	8	-6	-18	1848	652	1760	0.44	1.61	1.0000 
	-8	-6	-19	5792	2019	5502	-0.49	-0.91	1.0000 
	8	-6	-19	8578	2550	8466	0.15	-0.35	1.0000 
	-8	-6	19	7624	2158	7279	-0.51	0.91	1.0000 
	-6	-8	19	8756	2580	8401	-0.49	0.91	1.0000 
	6	-8	-19	9963	2716	9883	0.1	-0.33	1.0000 
	8	-6	-19	6918	1976	6817	0.15	-0.35	1.0000 
	-8	-6	-20	4014	1187	3699	-0.69	2.1	1.0000 
	8	-6	-20	4059	1221	4293	0.38	1.16	1.0000 
	-8	-6	20	3432	1190	3149	-0.66	-2.04	1.0000 
	-6	-8	20	5137	1650	4796	-0.69	-2.1	1.0000 
	6	-8	-20	5036	1599	5323	0.42	1.09	1.0000 
	8	-6	-20	3194	990	3399	0.38	1.16	1.0000 
	-8	-6	-21	12018	3295	11016	1	-0.96	1.0000 
	8	-6	-21	12028	3388	12063	0.03	0.22	1.0000 
	-8	-6	21	11014	2939	10072	0.98	1.02	1.0000 
	-6	-8	21	12881	3562	11864	0.98	0.98	1.0000 
	8	-6	-21	13678	3909	13716	0.03	0.22	1.0000 
	8	-6	-21	9741	2753	9773	0.03	0.22	1.0000 
	-8	-6	-22	1131	447	1396	-0.6	1.74	1.0000 
	8	-6	-22	2277	637	2147	0.58	1.57	1.0000 
	-8	-6	22	1605	593	1920	-0.55	-1.86	1.0000 
	-6	-8	22	2859	1001	3304	-0.6	-1.76	1.0000 
	8	-6	-22	1790	524	1668	0.58	1.57	1.0000 
	8	-6	-22	1777	474	1656	0.58	1.57	1.0000 
	-8	-6	-23	8877	2798	8729	-0.18	-0.1	1.0000 
	8	-6	-23	11890	2960	10406	1.59	-0.47	1.0000 
	-6	-8	23	13978	4027	13767	-0.19	-0.1	1.0000 
	-8	-6	23	8795	2490	8641	-0.18	-0.06	1.0000 
	8	-6	-23	12889	3221	11342	1.59	-0.47	1.0000 
	8	-6	-23	9357	2299	8046	1.59	-0.47	1.0000 
	-8	-6	-24	241	156	278	0.23	-0.34	1.0000 
	8	-6	-24	439	204	463	0.11	0.31	1.0000 
	-6	-8	24	882	434	954	0.24	0.28	1.0000 
	-8	-6	24	435	207	490	0.27	0.25	1.0000 
	6	-8	-24	519	282	557	0.14	0.43	1.0000 
	8	-6	-24	803	354	837	0.11	0.31	1.0000 
	8	-6	-24	303	178	323	0.11	0.31	1.0000 
	7	-8	0	10803	1602	8423	-2.69	0.09	1.0000 
	-8	-7	1	418	374	920	-3.5	4.42	1.0000 
	-7	-8	1	527	422	1171	-3.48	4.39	1.0000 
	8	-7	-1	1464	341	860	2.56	2.57	1.0000 
	7	-8	1	1642	410	1128	2.67	-3.3	1.0000 
	-7	-8	-2	85	629	1901	-1.63	-7.62	1.0000 
	-8	-7	2	36	334	880	-1.81	7.49	1.0000 
	-7	-8	2	13	407	1308	-1.9	7.57	1.0000 
	8	-7	2	41	429	971	1.11	5.55	1.0000 
	-7	-8	-3	19740	2095	20063	-0.28	-2.97	1.0000 
	-8	-7	3	17779	1830	18177	-0.37	2.82	1.0000 
	-7	-8	3	20421	2090	20848	-0.36	2.8	1.0000 
	-8	-7	4	4872	1810	6351	-2.11	-1	1.0000 
	-7	-8	4	9737	2557	11743	-2.11	-0.58	1.0000 
	-8	-7	5	34705	3943	42417	4.38	-5.36	1.0000 
	-8	-7	6	5813	2566	7370	1.93	1.55	1.0000 
	8	-7	6	5928	2982	7572	1.93	1.9	1.0000 
	-8	-7	7	46746	6806	49811	-1.61	1.44	1.0000 
	-7	-8	7	50076	7272	53226	-1.6	1.42	1.0000 
	-7	-8	8	2118	2897	7945	-5.53	8.29	1.0000 
	-8	-7	8	1603	2423	6915	-5.45	8.39	1.0000 
	8	-7	8	2722	3598	7751	-6.43	-4.99	1.0000 
	-8	-7	9	55783	6698	49062	-3.19	-1.54	1.0000 
	-7	-8	9	58974	7117	52123	-3.16	-1.59	1.0000 
	-7	-8	10	8533	2775	8936	-0.39	-0.93	1.0000 
	-7	-8	11	30945	3934	28355	1.73	-0.84	1.0000 
	8	-7	-11	42302	4804	34456	-4.49	0.78	1.0000 
	-8	-7	-12	8258	4821	11476	3.58	0.96	1.0000 
	7	-8	-12	3885	1905	6952	4.56	-1.45	1.0000 
	-8	-7	-13	6136	1897	4843	-2.05	-1.28	1.0000 
	-8	-7	13	11082	2892	9308	-2.1	1.37	1.0000 
	8	-7	-13	16765	3309	12312	4.12	-0.21	1.0000 
	-8	-7	-14	899	423	866	0.39	2.07	1.0000 
	-8	-7	14	1300	480	1264	0.44	-2.08	1.0000 
	-7	-8	14	1302	608	1275	0.43	-2.14	1.0000 
	8	-7	-14	2219	631	2137	0.19	-0.23	1.0000 
	-8	-7	-15	186	65	76	-2.06	2.45	1.0000 
	-8	-7	15	325	188	324	-2.12	-2.49	1.0000 
	-7	-8	15	200	126	110	-2.07	-2.47	1.0000 
	8	-7	-15	43	178	163	1.95	-1.97	1.0000 
	7	-8	-15	99	252	331	1.85	-2.01	1.0000 
	-8	-7	-16	23	120	0	0.5	0.95	1.0000 
	-7	-8	16	47	98	15	0.56	-1.07	1.0000 
	8	-7	-16	333	261	264	0.67	0.92	1.0000 
	7	-8	-16	489	337	413	0.66	0.95	1.0000 
	-8	-7	-17	5501	1525	4711	1.22	-0.05	1.0000 
	-7	-8	17	8067	2175	7118	1.21	-0.04	1.0000 
	8	-7	-17	9097	2629	8757	-0.38	-0.69	1.0000 
	7	-8	-17	9278	2731	8890	-0.44	-0.67	1.0000 
	-8	-7	-18	450	412	789	-1.17	-2.41	1.0000 
	8	-7	-18	2513	882	2895	-0.63	-1.31	1.0000 
	-8	-7	-19	24128	6689	23441	-0.53	-0.7	1.0000 
	-8	-7	-20	649	354	773	0.16	-2.78	1.0000 
	-8	-7	20	3297	1267	3694	0.12	2.58	1.0000 
	7	-8	-20	5964	3057	7280	1.79	0.18	1.0000 
	-8	-7	-21	38137	9963	38297	-0.07	0.33	1.0000 
	-8	-7	21	40132	10453	40187	-0.01	-0.42	1.0000 
	-8	-7	-22	251	277	561	-1.73	0.22	1.0000 
	-8	-7	22	2888	1486	3781	-1.71	-0.23	1.0000 
	8	-7	-22	4442	1977	5092	-1.02	0.34	1.0000 
	8	-8	0	29	93	78	0.71	-0.35	1.0000 
	-8	-8	-1	4233	765	2295	-5.93	-2.34	1.0000 
	-8	-8	1	3636	720	1653	-5.89	1.93	1.0000 
	8	-8	1	631	132	-23	5.52	-0.69	1.0000 
	-8	-8	-2	7136	2380	7206	0.09	0.14	1.0000 
	-8	-8	2	7233	2823	7301	0.09	-0.13	1.0000 
	-8	-8	3	32890	5449	31906	0.72	-1.64	1.0000 
	-8	-8	4	18484	2498	14093	4.01	-2.58	1.0000 
	-8	-8	5	68744	10407	61723	-3.13	1.26	1.0000 
	-8	-8	6	28701	4993	29160	0.23	-1.77	1.0000 
	-8	-8	7	71519	11427	67907	1.59	-1.12	1.0000 
	-8	-8	12	352	1108	2992	0.48	8.09	1.0000 
	8	-8	-12	1143	1505	4626	6.11	-4.53	1.0000 
	8	-8	-13	16390	5169	18636	-1.9	-0.36	1.0000 
	8	-8	-14	497	370	825	-1.25	-0.99	1.0000 
	-8	-8	15	32	167	279	-2.23	-1.07	1.0000 
	8	-8	-15	334	234	459	0.69	-0.65	1.0000 
	-8	-8	16	25	95	-17	-1.05	0.37	1.0000 
	8	-8	-16	41	169	216	-1.85	-0.45	1.0000 
	-8	-8	17	3300	1242	3519	-0.42	0.05	1.0000 
	8	-8	-17	4650	1242	3567	-1.87	-0.13	1.0000 
	-8	-8	18	2100	1098	2993	-1.94	0.45	1.0000 
	8	-8	-18	611	563	631	0.1	1.19	1.0000 
	-9	0	-2	43506	7677	51876	-4.31	-1.79	1.0000 
	-9	0	-2	41512	7374	49695	-4.31	-1.79	1.0000 
	-9	0	-2	44637	7874	53112	-4.31	-1.79	1.0000 
	-9	0	-2	47032	7961	55724	-4.31	-1.79	1.0000 
	0	-9	2	42137	7167	50421	-4.34	2.05	1.0000 
	-9	0	4	47433	7650	44948	-1.24	-1.98	1.0000 
	-9	0	-4	39815	5683	37574	-1.21	1.98	1.0000 
	-9	0	-4	39578	5644	37344	-1.21	1.98	1.0000 
	-9	0	-4	38322	5479	36123	-1.21	1.98	1.0000 
	-9	0	-4	40903	5556	38632	-1.21	1.98	1.0000 
	0	-9	4	38643	5204	36444	-1.21	-1.92	1.0000 
	-9	0	-6	25468	6816	25126	0.23	-0.39	1.0000 
	-9	0	-6	23679	4163	23349	0.23	-0.39	1.0000 
	-9	0	-6	25887	4300	25542	0.23	-0.39	1.0000 
	-9	0	-6	26901	4030	26549	0.23	-0.39	1.0000 
	0	-9	6	25440	4688	25053	0.27	0.04	1.0000 
	-9	0	8	5397	1991	6689	1.84	-0.53	1.0000 
	-9	0	-8	4645	1359	5786	1.75	0.51	1.0000 
	-9	0	-8	3054	1542	3990	1.75	0.51	1.0000 
	-9	0	8	4624	1657	5825	1.84	-0.53	1.0000 
	-9	0	-8	4896	1658	6066	1.75	0.51	1.0000 
	-9	0	-8	4731	1695	5882	1.75	0.51	1.0000 
	0	-9	8	4772	1118	5962	1.79	-0.66	1.0000 
	0	-9	-8	5819	1455	7126	1.8	0.36	1.0000 
	-9	0	-10	8018	1935	5028	-4.11	0.35	1.0000 
	9	0	-10	9847	2253	6484	-4.11	0.7	1.0000 
	0	-9	10	8185	1480	5181	-4.06	-0.81	1.0000 
	0	-9	-10	10364	962	6864	-4.19	0.27	1.0000 
	0	-9	12	28492	1351	26309	1.43	0.71	1.0000 
	0	-9	-12	31563	1692	29248	1.44	-0.82	1.0000 
	0	-9	14	35942	6201	39431	2.05	-1.28	1.0000 
	-9	0	-16	35495	3532	36404	-0.51	0.33	1.0000 
	9	0	-16	33732	3986	34552	-0.45	0.59	1.0000 
	0	-9	-16	43316	6475	44419	-0.55	0.45	1.0000 
	9	0	-18	12704	2798	16591	3.6	0.35	1.0000 
	0	-9	-18	16499	3771	20881	3.58	0.24	1.0000 
	-9	0	-20	1789	1820	3951	-4.45	1.04	1.0000 
	9	0	-20	2551	1554	5037	-4.45	0.92	1.0000 
	0	-9	20	2937	1520	5576	-4.42	-1.11	1.0000 
	-9	0	-22	44	133	95	-0.38	1.82	1.0000 
	9	0	-22	66	141	144	-0.37	1.82	1.0000 
	0	-9	22	48	203	102	-0.38	-1.77	1.0000 
	-9	0	-24	1377	755	1461	0.24	0.86	1.0000 
	9	0	-24	2370	772	2495	0.26	0.86	1.0000 
	0	-9	24	2106	648	2200	0.21	-0.77	1.0000 
	-9	0	-26	24910	8212	28988	-2.77	-0.8	1.0000 
	0	-9	26	26435	8791	30642	-2.78	0.83	1.0000 
	-9	1	0	78541	11485	76446	-0.85	0.37	1.0000 
	-9	1	0	75062	10863	73014	-0.85	0.37	1.0000 
	-9	1	0	77613	11294	75530	-0.85	0.37	1.0000 
	-9	1	0	78384	10897	76291	-0.85	0.37	1.0000 
	1	-9	0	77183	10644	75120	-0.83	0.05	1.0000 
	-9	1	-1	2402	1561	5575	5.65	-0.63	1.0000 
	-9	1	-1	1020	1689	3317	5.65	-0.63	1.0000 
	-9	1	-1	2961	1673	6412	5.65	-0.63	1.0000 
	-9	1	-1	3185	1966	6740	5.65	-0.63	1.0000 
	1	-9	-1	1047	903	3369	5.67	-0.45	1.0000 
	1	-9	1	1440	1905	4096	5.69	1.1	1.0000 
	-9	1	-2	54665	8620	55763	-0.47	0.96	1.0000 
	-9	1	-2	49331	7729	50373	-0.47	0.96	1.0000 
	-9	1	-2	51440	7927	52505	-0.47	0.96	1.0000 
	-9	1	-2	53902	7891	54992	-0.47	0.96	1.0000 
	1	-9	2	48818	7114	49965	-0.54	-0.68	1.0000 
	-1	-9	-2	46035	6764	47353	-0.69	-0.33	1.0000 
	-9	1	-3	5935	3212	9786	-4.86	-1.34	1.0000 
	-9	1	-3	2795	3002	5574	-4.86	-1.34	1.0000 
	-9	1	-3	5720	2931	9508	-4.86	-1.34	1.0000 
	-9	1	-3	6142	2184	10052	-4.86	-1.34	1.0000 
	-1	-9	3	5793	1532	6829	1.37	3.41	1.0000 
	1	-9	-3	2211	1181	4692	-4.8	-1.26	1.0000 
	-1	-9	-3	7992	1964	9265	1.46	-2.75	1.0000 
	-9	1	-4	44862	6589	42776	-1.11	-0.23	1.0000 
	-9	1	-4	42942	6378	40902	-1.11	-0.23	1.0000 
	-9	1	-4	43818	6444	41757	-1.11	-0.23	1.0000 
	-9	1	-4	46129	6655	44014	-1.11	-0.23	1.0000 
	-9	-1	-5	8192	2713	10592	-2.75	-0.01	1.0000 
	-9	1	-5	8004	2615	8755	0.83	1.27	1.0000 
	-9	1	5	9114	3536	9915	0.85	-1.04	1.0000 
	-9	-1	-5	5961	2921	8031	-2.75	-0.01	1.0000 
	-9	1	-5	6245	3335	6907	0.83	1.27	1.0000 
	-9	-1	-5	9164	2578	11693	-2.75	-0.01	1.0000 
	-9	1	-5	8992	2930	9789	0.83	1.27	1.0000 
	-9	-1	-5	10320	2267	12995	-2.75	-0.01	1.0000 
	-9	1	-5	8448	1481	9220	0.83	1.27	1.0000 
	-9	-1	-6	27623	7655	24454	2.27	1.68	1.0000 
	-9	1	-6	27403	6605	26683	0.53	1	1.0000 
	-9	-1	-6	26846	3949	23722	2.27	1.68	1.0000 
	-9	1	-6	21142	7395	20507	0.53	1	1.0000 
	-9	-1	-6	28822	4222	25584	2.27	1.68	1.0000 
	-9	1	-6	30599	7793	29839	0.53	1	1.0000 
	-9	-1	-6	31279	4349	27905	2.27	1.68	1.0000 
	-9	1	-6	31070	4917	30304	0.53	1	1.0000 
	-1	-9	6	26964	3542	23860	2.23	-1.43	1.0000 
	-9	-1	-7	10150	2871	8471	-1.94	-0.09	1.0000 
	-9	1	-7	11450	2587	8756	2.95	0.53	1.0000 
	-9	-1	-7	7406	2738	5983	-1.94	-0.09	1.0000 
	-9	-1	-7	9597	2338	7967	-1.94	-0.09	1.0000 
	-9	-1	-7	10018	2629	8351	-1.94	-0.09	1.0000 
	1	-9	7	7050	1604	5006	2.92	-0.19	1.0000 
	1	-9	-7	13696	2452	10716	2.97	0.49	1.0000 
	-1	-9	-7	14583	2602	12644	-1.86	-0.23	1.0000 
	1	-9	8	5591	1900	6057	0.64	1.15	1.0000 
	1	-9	-8	7467	1244	7987	0.63	-0.88	1.0000 
	-1	-9	-8	7409	1283	8866	1.79	0.15	1.0000 
	-9	1	-9	5681	2348	6302	0.9	0.08	1.0000 
	1	-9	9	5640	1864	6256	0.89	-0.1	1.0000 
	1	-9	-9	7196	1073	7879	0.88	0.11	1.0000 
	-1	-9	-9	11380	1277	8521	3.14	1.46	1.0000 
	-9	-1	-10	5567	2105	6021	0.69	1.43	1.0000 
	9	1	-10	6580	1952	7104	0.73	1.33	1.0000 
	-1	-9	10	5980	2513	6484	0.73	-1.27	1.0000 
	1	-9	10	4677	1804	6124	2.2	-0.21	1.0000 
	1	-9	-10	5591	995	7135	2.16	0.36	1.0000 
	-1	-9	-10	7844	1324	8393	0.69	1.46	1.0000 
	-9	-1	-11	4225	1722	5098	1.44	1.62	1.0000 
	-1	-9	11	3312	2331	4072	1.43	-1.53	1.0000 
	1	-9	11	3881	1318	4201	-0.48	1.03	1.0000 
	1	-9	-11	5191	1609	5535	-0.46	-0.85	1.0000 
	-1	-9	-11	4857	1708	5769	1.41	1.47	1.0000 
	1	-9	12	34224	5134	32610	1.12	-2.1	1.0000 
	1	-9	-12	37796	5647	36190	1.06	1.96	1.0000 
	1	-9	13	1263	624	2018	1.98	0.74	1.0000 
	1	-9	14	53506	9048	53012	-0.2	-2.21	1.0000 
	-9	-1	-15	617	1069	2321	-4.98	-2.08	1.0000 
	1	-9	15	1475	998	3209	4.02	-0.56	1.0000 
	1	-9	-15	4270	3458	7017	4.06	0.61	1.0000 
	1	-9	16	39617	4237	44889	-2.84	-0.18	1.0000 
	-1	-9	16	51975	5677	54651	-1.28	-0.09	1.0000 
	1	-9	-16	40862	4351	46326	-2.9	0.01	1.0000 
	-9	-1	-17	7062	1993	7849	1.01	0.87	1.0000 
	-9	1	-17	10222	1167	9131	1.24	1.33	1.0000 
	-1	-9	17	12449	2180	13528	1.04	-0.96	1.0000 
	1	-9	-17	12339	2668	11135	1.25	1.4	1.0000 
	-9	-1	-18	21985	4735	21063	-0.72	-0.39	1.0000 
	-9	1	-18	21798	3481	22152	0.15	-1.59	1.0000 
	-1	-9	18	31087	5714	29982	-0.73	0.41	1.0000 
	9	-1	-18	19334	3488	19691	0.18	-1.46	1.0000 
	-9	-1	-19	15791	5282	15144	0.63	1.06	1.0000 
	-9	1	-19	15922	3462	13434	-2.26	-1.68	1.0000 
	9	1	-19	16763	3600	16106	0.62	0.99	1.0000 
	9	-1	-19	16308	3505	13804	-2.25	-1.73	1.0000 
	-9	-1	-20	6415	2849	6851	-0.6	-0.21	1.0000 
	-9	1	-20	8711	2743	7423	1.55	-1.19	1.0000 
	1	-9	-20	14720	3681	13011	1.58	-1.15	1.0000 
	9	-1	-20	8495	1900	7209	1.57	-1.14	1.0000 
	-9	-1	-21	18391	3439	17732	-0.54	0.22	1.0000 
	-9	1	-21	19099	3615	16611	2.1	-0.81	1.0000 
	1	-9	-21	23396	3857	20620	2.11	-0.89	1.0000 
	-9	-1	-22	2095	950	2174	0.18	-0.11	1.0000 
	-1	-9	22	2513	776	2606	0.21	-0.05	1.0000 
	1	-9	22	3473	1029	3315	-0.31	0.07	1.0000 
	-9	-1	-23	10460	4286	10970	-0.56	-0.32	1.0000 
	9	1	-23	15986	4707	16608	-0.55	-0.31	1.0000 
	-1	-9	23	16052	4546	16675	-0.55	0.33	1.0000 
	1	-9	23	18406	4525	17324	-0.89	0.3	1.0000 
	-9	-1	-24	244	315	394	-0.86	-0.69	1.0000 
	9	1	-24	519	401	752	-0.91	-0.81	1.0000 
	9	-1	-24	655	402	757	-0.32	0.86	1.0000 
	-1	-9	24	343	285	521	-0.89	0.61	1.0000 
	1	-9	24	516	287	599	-0.3	-0.84	1.0000 
	-9	-1	-25	5232	2508	7348	2.98	0.17	1.0000 
	9	1	-25	7413	3041	9839	2.91	0.27	1.0000 
	9	-1	-25	10431	3217	10301	0.13	0.29	1.0000 
	-1	-9	25	6538	2566	8841	2.93	-0.15	1.0000 
	1	-9	25	8669	2715	8565	0.11	-0.36	1.0000 
	-9	-1	-26	7623	2994	8164	-0.64	0.73	1.0000 
	9	1	-26	11250	3479	11854	-0.59	0.59	1.0000 
	-1	-9	26	9523	3217	10099	-0.6	-0.75	1.0000 
	-9	-1	-27	3312	1574	4171	-1.57	-0.15	1.0000 
	9	1	-27	3791	1711	4717	-1.58	-0.1	1.0000 
	-1	-9	27	3595	1661	4476	-1.55	0.21	1.0000 
	9	-1	-27	5709	1735	6232	0.75	-0.02	1.0000 
	9	1	-27	4385	1817	5377	-1.58	-0.1	1.0000 
	-9	-2	0	42007	6866	44956	1.56	-0.11	1.0000 
	-9	2	0	44706	7359	47187	1.28	0.19	1.0000 
	-9	-2	0	41842	6827	44785	1.56	-0.11	1.0000 
	-9	-2	0	40840	6689	43748	1.56	-0.11	1.0000 
	-9	-2	0	44687	6993	47727	1.56	-0.11	1.0000 
	-2	-9	0	36608	5761	39340	1.56	0.16	1.0000 
	-9	-2	-1	8963	2549	9272	-0.36	-0.65	1.0000 
	-9	-2	1	8614	2314	8895	-0.33	0.07	1.0000 
	-9	2	-1	11834	2733	9455	-2.58	0.41	1.0000 
	-9	-2	-1	6810	2375	7079	-0.36	-0.65	1.0000 
	-9	-2	1	7686	1919	7952	-0.33	0.07	1.0000 
	-9	2	-1	9580	2837	7452	-2.58	0.41	1.0000 
	-9	-2	1	9812	2300	10112	-0.33	0.07	1.0000 
	-9	2	-1	11170	2765	8862	-2.58	0.41	1.0000 
	-9	-2	-1	9927	2309	10253	-0.36	-0.65	1.0000 
	-9	-2	1	9580	1760	9876	-0.33	0.07	1.0000 
	-9	-2	-1	9685	2742	10006	-0.36	-0.65	1.0000 
	2	-9	1	9426	1751	7323	-2.56	-0.25	1.0000 
	2	-9	-1	10790	1797	8514	-2.61	0.63	1.0000 
	-9	-2	-2	26094	4614	25182	0.62	-0.71	1.0000 
	-9	2	-2	28594	4421	28025	0.41	0.97	1.0000 
	-9	-2	-2	25601	4597	24698	0.62	-0.71	1.0000 
	-9	2	-2	26534	4210	25985	0.41	0.97	1.0000 
	-9	2	-2	28103	4359	27539	0.41	0.97	1.0000 
	-9	-2	-2	37078	8393	35991	0.62	-0.71	1.0000 
	-9	-2	-2	30490	4385	29504	0.62	-0.71	1.0000 
	-2	-9	2	32982	4705	31945	0.63	0.4	1.0000 
	2	-9	-2	27845	4065	27305	0.41	1.12	1.0000 
	-9	-2	-3	32153	8193	33284	0.71	0.79	1.0000 
	-9	2	-3	29491	4508	28286	0.78	0.01	1.0000 
	-9	2	-3	27486	4351	26323	0.78	0.01	1.0000 
	-9	-2	-3	25622	7102	26632	0.71	0.79	1.0000 
	-9	2	-3	29429	4498	28226	0.78	0.01	1.0000 
	-9	-2	-3	31985	7228	33113	0.71	0.79	1.0000 
	-9	-2	-3	31333	4811	32450	0.71	0.79	1.0000 
	-2	-9	3	22910	3530	23757	0.65	-1.66	1.0000 
	-9	-2	-4	21900	6171	27197	3.76	0.98	1.0000 
	-9	-2	-4	18955	4328	23902	3.76	0.98	1.0000 
	-9	-2	-4	22343	6427	27691	3.76	0.98	1.0000 
	-9	-2	-4	24503	5405	30091	3.76	0.98	1.0000 
	-9	-2	5	43058	8376	49659	-3.43	1.13	1.0000 
	-9	-2	-5	29144	5378	34475	-3.33	-0.31	1.0000 
	-9	-2	5	38367	8274	44609	-3.43	1.13	1.0000 
	-9	-2	-5	29254	5385	34594	-3.33	-0.31	1.0000 
	-9	-2	5	43520	8287	50155	-3.43	1.13	1.0000 
	-9	-2	-5	41891	7221	48239	-3.33	-0.31	1.0000 
	-9	2	-6	12887	2927	10837	2.13	1.11	1.0000 
	-9	2	-6	10007	4443	8207	2.13	1.11	1.0000 
	-9	2	-6	16100	3743	13801	2.13	1.11	1.0000 
	-9	-2	-6	20363	924	17548	2.26	-0.57	1.0000 
	-9	-2	6	20556	1645	17627	2.35	0.73	1.0000 
	2	-9	-6	22523	3266	19792	2.11	0.77	1.0000 
	-2	-9	7	33476	1201	35180	0.92	1.48	1.0000 
	-9	-2	7	34656	1066	36047	0.73	1.33	1.0000 
	2	-9	-7	51412	6327	48633	1.33	1.56	1.0000 
	-9	-2	8	10700	2292	11230	0.56	-0.53	1.0000 
	-9	-2	-8	8129	2527	8614	0.58	0.67	1.0000 
	-2	-9	8	10669	2221	11217	0.57	-0.71	1.0000 
	-9	-2	8	6626	1166	7043	0.56	-0.53	1.0000 
	-9	-2	-9	26066	1737	26427	-0.07	1.9	1.0000 
	-9	2	-9	26756	1046	22222	-3.2	-0.23	1.0000 
	9	2	-9	24426	1030	24842	-0.15	1.62	1.0000 
	2	-9	9	22966	772	18809	-3.2	-0.18	1.0000 
	-9	-2	9	17601	1575	17946	-0.15	-1.62	1.0000 
	-9	-2	-10	20	685	536	3.96	-3.55	1.0000 
	-9	2	-10	114	572	1054	-0.98	-4.93	1.0000 
	2	-9	10	14	183	516	-0.84	4.9	1.0000 
	2	-9	-10	742	801	2459	-0.87	-4.99	1.0000 
	-9	-2	-11	12611	1787	10767	-1.83	1.59	1.0000 
	-9	2	-11	14065	3102	11756	2.34	-1.14	1.0000 
	2	-9	11	11760	1906	9678	2.31	1.07	1.0000 
	2	-9	-11	17735	2891	15101	2.36	-1.1	1.0000 
	-9	-2	-12	1185	660	1256	-0.25	-0.52	1.0000 
	9	2	-12	1975	780	2124	-0.38	-0.34	1.0000 
	2	-9	12	1471	475	1616	-0.43	0.23	1.0000 
	2	-9	-12	2387	746	2601	-0.48	-0.02	1.0000 
	-9	2	-13	2960	965	2760	-1.8	-3.93	1.0000 
	-9	-2	-13	2849	924	2324	1.09	1.34	1.0000 
	9	2	-13	3803	1005	3215	1.06	1.78	1.0000 
	2	-9	13	3204	856	2960	-1.86	3.83	1.0000 
	-2	-9	13	4153	1085	3522	1.09	-1.54	1.0000 
	2	-9	-13	4789	1298	4696	-1.85	-4.13	1.0000 
	-9	2	-14	2448	599	1749	-1.67	0.66	1.0000 
	-9	-2	-14	1485	557	1294	-0.77	-1.03	1.0000 
	9	2	-14	2075	687	1843	-0.73	-0.78	1.0000 
	2	-9	14	2338	515	1663	-1.65	-0.53	1.0000 
	-2	-9	14	2119	585	1884	-0.78	0.96	1.0000 
	2	-9	-14	2896	685	2151	-1.62	0.53	1.0000 
	-9	2	-15	181	168	183	0	-1.24	1.0000 
	-9	-2	-15	107	211	202	-0.18	3.16	1.0000 
	9	2	-15	88	146	82	-0.18	2.98	1.0000 
	9	-2	-15	215	194	211	-0.07	-1.29	1.0000 
	2	-9	15	178	121	176	-0.03	1.09	1.0000 
	-2	-9	15	250	220	511	-0.29	-2.9	1.0000 
	2	-9	-15	277	225	282	-0.06	-1.41	1.0000 
	-9	2	-16	2002	597	1741	0.77	0.61	1.0000 
	-9	-2	-16	1578	638	1438	0.37	-0.41	1.0000 
	9	2	-16	2391	734	2214	0.39	-0.28	1.0000 
	2	-9	16	2271	629	1974	0.74	-0.19	1.0000 
	-2	-9	16	2518	744	2328	0.4	0.49	1.0000 
	2	-9	-16	2873	788	2524	0.81	0.41	1.0000 
	-9	2	-17	7881	2694	7610	0.33	-0.59	1.0000 
	-9	-2	-17	9556	2755	7972	-1.87	-0.45	1.0000 
	9	2	-17	11968	2954	10140	-1.92	-0.48	1.0000 
	2	-9	17	9997	2438	9720	0.3	0.52	1.0000 
	-2	-9	17	12967	3008	11058	-1.92	0.5	1.0000 
	2	-9	-17	12814	3173	12400	0.4	-0.58	1.0000 
	9	-2	-17	9824	2353	9495	0.36	-0.5	1.0000 
	-9	2	-18	39	273	342	-2.8	-0.42	1.0000 
	2	-9	18	47	168	383	-2.83	0.69	1.0000 
	2	-9	-18	566	486	1326	-2.81	-0.48	1.0000 
	9	-2	-18	472	393	1211	-2.83	-0.8	1.0000 
	-9	2	-19	20883	3208	20370	-0.38	2.46	1.0000 
	2	-9	19	22128	4061	21613	-0.37	-2.37	1.0000 
	2	-9	-19	29076	5223	28498	-0.38	2.58	1.0000 
	9	-2	-19	22502	3426	21982	-0.37	2.49	1.0000 
	-9	2	-20	12	216	269	3.06	-0.75	1.0000 
	-9	-2	-20	377	736	1052	2.84	-0.97	1.0000 
	9	-2	-20	898	1012	1933	3.09	-0.66	1.0000 
	2	-9	20	346	439	1060	3.08	0.79	1.0000 
	2	-9	-20	754	651	1707	3.06	-0.62	1.0000 
	9	-2	-20	382	426	1121	3.09	-0.66	1.0000 
	-9	2	-21	27776	5206	30367	-1.59	1.37	1.0000 
	-9	-2	-21	28435	5378	29513	0.72	-0.57	1.0000 
	9	-2	-21	34064	6718	37152	-1.73	1.22	1.0000 
	9	-2	-21	18777	4071	21080	-1.73	1.22	1.0000 
	-9	2	-22	4	251	296	-2.74	-1.93	1.0000 
	-9	-2	-22	231	788	991	-1.64	-3.22	1.0000 
	9	-2	-22	804	835	1848	-2.8	-1.62	1.0000 
	-2	-9	22	916	887	2185	-1.59	3.3	1.0000 
	-9	2	-23	20756	5571	21475	0.54	-0.12	1.0000 
	-9	-2	-23	21316	6108	23912	-1.91	-0.18	1.0000 
	9	-2	-23	27492	7161	28186	0.45	-0.22	1.0000 
	-2	-9	23	24943	7075	27832	-1.96	0.32	1.0000 
	-9	2	-24	342	351	551	-0.67	-1.55	1.0000 
	-9	-2	-24	45	318	499	-3.19	-2.34	1.0000 
	9	-2	-24	856	408	1195	-0.7	-1.54	1.0000 
	9	2	-24	173	426	877	-3.15	-2.39	1.0000 
	-2	-9	24	208	366	967	-3.17	2.41	1.0000 
	-9	2	-25	11211	3724	12011	-0.83	-0.16	1.0000 
	-9	-2	-25	15677	4793	15177	-0.42	-0.59	1.0000 
	9	2	-25	15693	4426	15256	-0.36	-0.6	1.0000 
	9	-2	-25	14674	4719	15645	-0.89	-0.2	1.0000 
	-2	-9	25	16015	4565	15550	-0.38	0.58	1.0000 
	-9	2	-26	2688	949	2339	0.8	0.46	1.0000 
	-9	-2	-26	2205	698	1823	0.98	0.66	1.0000 
	9	2	-26	2360	1182	1962	0.99	0.64	1.0000 
	9	-2	-26	3747	1317	3333	0.8	0.49	1.0000 
	-2	-9	26	3629	1129	3138	0.98	-0.61	1.0000 
	9	-2	-26	3468	1044	3070	0.8	0.49	1.0000 
	-9	2	-27	5364	2031	5099	-0.45	-0.46	1.0000 
	-9	-2	-27	9847	2401	7908	2.31	-0.38	1.0000 
	9	-2	-27	9593	2637	9250	-0.43	-0.41	1.0000 
	-2	-9	27	9467	2228	7549	2.33	0.38	1.0000 
	9	-2	-27	8973	2437	8642	-0.43	-0.41	1.0000 
	-9	3	0	16	279	4	0.36	0.36	1.0000 
	-9	3	0	72	187	44	0.36	0.36	1.0000 
	-9	3	0	223	212	172	0.36	0.36	1.0000 
	-9	-3	0	527	131	158	2.25	-0.59	1.0000 
	-3	-9	0	880	183	378	2.23	-0.36	1.0000 
	3	-9	0	453	160	381	0.34	-0.62	1.0000 
	-9	-3	-1	8532	716	6811	2.24	-1.72	1.0000 
	-3	-9	1	9553	1795	7814	2.1	1.3	1.0000 
	-3	-9	-1	8686	1312	7006	2.12	-1.2	1.0000 
	3	-9	1	6672	2354	4575	-3.29	-1.81	1.0000 
	3	-9	-1	8314	1738	5869	-3.36	1.41	1.0000 
	-9	-3	-2	6640	1695	6377	-0.38	1.66	1.0000 
	-3	-9	2	6870	2078	6657	-0.34	-2.03	1.0000 
	3	-9	-2	5859	1742	5954	-0.22	-2.79	1.0000 
	-9	-3	-3	20718	1185	21945	0.96	1.84	1.0000 
	-3	-9	3	22475	1033	23818	1.01	-1.21	1.0000 
	-9	3	-4	9511	1787	6795	3.34	-0.51	1.0000 
	-9	3	4	9792	1511	6997	3.38	0.54	1.0000 
	-9	-3	-4	8085	2005	8705	-0.73	0.41	1.0000 
	-3	-9	4	6718	1453	7263	-0.71	-0.24	1.0000 
	-9	3	-5	34062	1623	36262	1.32	0.52	1.0000 
	-9	-3	-5	36891	1222	31407	3.27	0.62	1.0000 
	-3	-9	5	42112	1271	36259	3.25	-0.96	1.0000 
	-9	-3	-6	2793	2413	5211	3.38	-4.02	1.0000 
	3	-9	-6	1633	1658	5076	6.59	-2.38	1.0000 
	-3	-9	-8	89	740	1455	-3.93	-9	1.0000 
	3	-9	-8	2325	1347	4209	1.12	3.88	1.0000 
	-9	3	-9	30625	5369	30670	0.06	0.66	1.0000 
	-9	-3	9	24383	3821	23158	0.89	0.2	1.0000 
	-3	-9	10	2504	887	2941	-0.83	-0.87	1.0000 
	-9	-3	10	2208	818	2658	-0.85	-1.24	1.0000 
	3	-9	-10	3764	1249	3453	0.62	0.46	1.0000 
	-9	3	-11	22990	3879	24281	-0.85	1.23	1.0000 
	-3	-9	11	30014	4792	28097	-1.21	1.15	1.0000 
	-9	-3	11	22852	3877	21209	-1.19	1.16	1.0000 
	3	-9	-11	37357	7379	38979	-0.83	1.21	1.0000 
	3	-9	12	4665	1351	3943	-1.37	1.74	1.0000 
	-9	-3	12	3968	1532	5134	1.86	-2.45	1.0000 
	-3	-9	12	6977	2096	8456	1.76	-2.43	1.0000 
	3	-9	-12	12149	2458	11014	-1.3	-1.36	1.0000 
	-9	3	-13	10425	3194	12049	1.71	2.51	1.0000 
	3	-9	13	8931	2209	10471	1.75	-2.62	1.0000 
	-3	-9	13	15465	3222	18185	-2.29	0.8	1.0000 
	-9	-3	13	8227	1423	10174	-2.22	0.75	1.0000 
	3	-9	-13	20337	3231	22627	1.7	2.6	1.0000 
	-9	3	-14	11053	2503	10679	0.41	0.3	1.0000 
	3	-9	14	10816	2098	10441	0.41	-0.32	1.0000 
	-3	-9	14	17905	2891	15644	2.24	-2.94	1.0000 
	-9	-3	14	10150	1369	8413	2.23	-2.81	1.0000 
	3	-9	-14	18292	2596	17882	0.35	0.4	1.0000 
	-9	3	-15	717	574	1629	-3.01	-0.12	1.0000 
	3	-9	15	953	643	1990	-3.04	0.12	1.0000 
	-3	-9	15	3429	1171	3965	0.98	0.49	1.0000 
	3	-9	-15	3643	1016	5476	-3.02	-0.04	1.0000 
	9	-3	-15	2549	1203	4126	-3.05	-0.01	1.0000 
	-9	3	-16	8641	3404	9186	0.64	0.11	1.0000 
	-9	-3	-16	12227	3987	11791	-0.43	0.48	1.0000 
	-3	-9	16	15559	5663	15079	-0.42	-0.5	1.0000 
	9	-3	-16	15534	2717	16202	0.6	0.32	1.0000 
	-9	3	-17	3685	1758	3998	-0.54	0.33	1.0000 
	-9	-3	-17	4659	1704	5342	1.05	0.51	1.0000 
	-3	-9	17	6155	2376	6931	1.03	-0.58	1.0000 
	-9	3	-18	15668	5463	15402	0.24	0.05	1.0000 
	-3	-9	18	22147	4212	21135	0.75	0.7	1.0000 
	-9	3	-19	15070	3585	15997	0.77	-0.99	1.0000 
	-3	-9	19	25683	5417	24688	0.68	-0.32	1.0000 
	9	-3	-19	22736	4693	23898	0.78	-1.09	1.0000 
	-9	3	-20	7131	2801	6103	-1.39	1.2	1.0000 
	-9	-3	-20	11410	3501	10526	-1	-1.32	1.0000 
	-3	-9	20	16461	3314	15411	-1	1.34	1.0000 
	3	-9	-20	19209	3840	17466	-1.43	1.16	1.0000 
	9	-3	-20	13994	2663	12536	-1.41	1.27	1.0000 
	-9	3	-21	28775	7311	30277	-1.01	-1.17	1.0000 
	-3	-9	21	34130	8163	33598	-0.32	-0.07	1.0000 
	3	-9	-21	37170	10204	38861	-1	-1.2	1.0000 
	9	-3	-21	25480	6840	26827	-0.96	-1.17	1.0000 
	-9	3	-22	1410	719	1576	-0.4	1.36	1.0000 
	9	3	-22	4860	1712	5502	-0.83	1.61	1.0000 
	3	-9	-22	4521	1522	4851	-0.43	1.25	1.0000 
	-9	3	-23	18758	5962	18127	-0.53	-0.2	1.0000 
	9	-3	-23	31865	8447	31029	-0.53	-0.07	1.0000 
	9	3	-23	29851	7182	26105	2.5	-0.25	1.0000 
	9	-3	-23	11846	3231	11338	-0.53	-0.07	1.0000 
	-9	3	-24	1	128	140	-2.39	-1.12	1.0000 
	-9	-3	-24	402	473	906	0.22	2.37	1.0000 
	9	3	-24	617	506	1320	0.48	2.64	1.0000 
	9	-3	-24	345	307	943	-2.3	-1.44	1.0000 
	-3	-9	24	569	389	1206	0.44	-2.51	1.0000 
	-9	3	-25	5399	2182	5928	-0.79	-0.17	1.0000 
	-9	-3	-25	13710	3515	11875	-1.77	-0.7	1.0000 
	9	3	-25	12810	3234	11073	-1.73	-0.77	1.0000 
	9	-3	-25	11786	3803	12572	-0.8	-0.06	1.0000 
	-3	-9	25	12568	3263	10831	-1.75	0.76	1.0000 
	9	-3	-25	11624	3443	12405	-0.8	-0.06	1.0000 
	-9	3	-26	0	74	57	-1.4	-0.96	1.0000 
	-9	-3	-26	43	212	340	-2.48	-0.89	1.0000 
	9	3	-26	51	150	336	-2.43	-0.51	1.0000 
	9	-3	-26	116	194	352	-1.29	-1.24	1.0000 
	-3	-9	26	146	268	556	-2.42	0.79	1.0000 
	9	3	-26	256	320	740	-2.43	-0.51	1.0000 
	9	-3	-26	325	314	678	-1.29	-1.24	1.0000 
	-9	-4	0	6045	1899	7817	-2.39	-0.13	1.0000 
	-9	4	0	6885	1581	5929	1.36	-0.23	1.0000 
	4	-9	0	7358	1862	6352	1.39	0.24	1.0000 
	-9	-4	-1	5786	1883	5541	2.4	5.72	1.0000 
	-9	-4	1	6175	2010	5750	2.56	-5.46	1.0000 
	-9	4	-1	7646	2016	6372	-1.99	2.13	1.0000 
	-9	4	1	6208	2042	5061	-1.97	-2.08	1.0000 
	-4	-9	1	11258	1831	10818	2.59	-5.29	1.0000 
	-9	4	-2	19501	3461	20073	0.48	0.6	1.0000 
	-9	4	2	20659	3365	21205	0.45	-0.6	1.0000 
	-9	-4	-2	22382	3672	23395	0.7	-0.68	1.0000 
	4	-9	2	21508	4603	22094	0.46	-0.44	1.0000 
	-9	4	-3	6708	2261	5582	1.67	0.86	1.0000 
	-9	-4	-3	11171	1765	8508	-3.07	1.03	1.0000 
	9	-4	-3	9053	1647	7759	1.67	1.04	1.0000 
	4	-9	3	8426	2711	7185	1.65	-0.96	1.0000 
	-9	4	-4	18754	3346	17825	0.78	0.35	1.0000 
	-9	-4	4	16741	2717	17197	-0.42	1.62	1.0000 
	4	-9	4	13131	3250	12387	0.75	-0.28	1.0000 
	-9	4	-5	9251	2641	8099	-1.35	1.97	1.0000 
	-9	4	-7	5593	2156	5816	-0.29	0.41	1.0000 
	9	-4	-7	7392	1836	7635	-0.26	0.56	1.0000 
	-4	-9	-7	12048	2155	10307	-1.82	-0.19	1.0000 
	4	-9	-7	7801	1598	8063	-0.27	0.54	1.0000 
	9	4	-8	155	435	1021	1.71	4.87	1.0000 
	9	-4	-8	86	278	755	1.54	-4.85	1.0000 
	-9	4	-9	1015	690	1825	2.52	0.94	1.0000 
	9	4	-9	2257	929	2798	-1.13	-0.68	1.0000 
	9	-4	-9	1488	827	2486	2.6	1.18	1.0000 
	-4	-9	9	2148	860	2663	-1.11	0.63	1.0000 
	-4	-9	-9	1883	795	2431	-1.21	-1.03	1.0000 
	-9	-4	9	1448	678	1886	-1.13	0.68	1.0000 
	4	-9	-9	1439	714	2405	2.56	1.34	1.0000 
	9	4	-10	6624	2169	10753	-4.92	0.55	1.0000 
	-4	-9	10	6317	2297	10388	-4.95	-0.5	1.0000 
	-9	-4	10	4751	1310	8323	-4.92	-0.55	1.0000 
	-4	-9	-11	614	761	2061	4.62	0.05	1.0000 
	-9	-4	11	885	806	2508	4.54	0.07	1.0000 
	9	-4	-12	24283	2483	23123	-0.83	0.11	1.0000 
	-9	-4	12	17973	2767	18514	0.37	1.21	1.0000 
	-4	-9	-12	24681	2818	25396	0.43	-1.05	1.0000 
	9	-4	-13	320	770	2024	6.06	0.21	1.0000 
	-9	-4	13	725	723	2140	-4.23	0.66	1.0000 
	-4	-9	-13	253	412	1218	-4.2	-0.33	1.0000 
	9	-4	-13	2501	1368	5964	6.06	0.21	1.0000 
	-9	-4	-14	29009	4755	32478	-2.24	-2.48	1.0000 
	-9	4	-14	33044	4905	35381	-1.37	0.51	1.0000 
	-9	-4	14	21857	4293	24880	-2.25	2.21	1.0000 
	-4	-9	-14	29232	4693	32712	-2.24	-2.36	1.0000 
	-9	-4	-15	371	661	1573	-4.38	-1.6	1.0000 
	-9	4	-15	40	686	646	4.23	-0.47	1.0000 
	-9	-4	15	828	941	2471	-4.47	1.64	1.0000 
	4	-9	-15	2539	1273	4823	4.21	-0.33	1.0000 
	-9	4	-16	28815	3791	27104	-1.13	0.01	1.0000 
	9	-4	-16	31754	4278	29952	-1.15	-0.2	1.0000 
	-9	-4	16	20880	3139	19928	-0.75	0.21	1.0000 
	-9	-4	-17	7722	2803	8727	1.22	-0.26	1.0000 
	-9	4	-17	3607	1743	3392	0.39	0.45	1.0000 
	-9	-4	17	5994	1987	6871	1.2	0.29	1.0000 
	9	-4	-17	13462	2899	13047	0.39	0.54	1.0000 
	-9	4	-18	30243	5000	29275	0.66	0.69	1.0000 
	-9	-4	-18	34370	6645	31219	2.09	2.1	1.0000 
	-9	-4	18	25140	4302	22405	2.09	-1.86	1.0000 
	4	-9	-18	46906	9314	45659	0.69	0.82	1.0000 
	-9	4	-19	4215	2283	3959	-0.44	0	1.0000 
	-9	-4	-19	10199	5030	11225	-1.12	1.32	1.0000 
	-9	-4	19	8193	2614	9142	-1.16	-1.29	1.0000 
	-4	-9	19	15746	3824	17061	-1.15	-1.22	1.0000 
	4	-9	-19	17397	3194	16877	-0.45	-0.13	1.0000 
	-9	4	-20	10404	3240	10885	0.54	0.58	1.0000 
	-4	-9	20	18866	5661	20745	1.49	-0.29	1.0000 
	4	-9	-20	24164	6181	24943	0.57	0.75	1.0000 
	9	-4	-20	20425	5220	21103	0.54	0.77	1.0000 
	-9	4	-21	3112	2149	3037	0.12	-0.57	1.0000 
	-9	-4	-21	12299	4033	11228	-1.15	1.09	1.0000 
	9	4	-21	17086	4237	15775	-1.19	1.06	1.0000 
	4	-9	-21	19950	5261	19744	0.14	-0.53	1.0000 
	9	-4	-21	15203	3852	15002	0.16	-0.56	1.0000 
	-9	4	-22	612	653	869	-1.07	-0.43	1.0000 
	-9	-4	-22	4594	1683	5137	-0.79	0.91	1.0000 
	9	4	-22	4312	1475	4880	-0.86	0.86	1.0000 
	4	-9	-22	6380	2981	7192	-1.1	-0.35	1.0000 
	9	-4	-22	3331	1189	3920	-1.1	-0.35	1.0000 
	-9	4	-23	1547	1076	1506	-0.08	0.64	1.0000 
	-9	-4	-23	14453	3851	13141	1.21	0.93	1.0000 
	9	4	-23	12709	3394	11512	1.18	0.92	1.0000 
	-4	-9	23	14894	4016	13565	1.21	-0.95	1.0000 
	9	-4	-23	7547	2149	7488	-0.05	0.55	1.0000 
	-9	-4	-24	545	212	399	1.31	1.04	1.0000 
	9	4	-24	524	186	397	1.24	1.1	1.0000 
	-4	-9	24	971	359	817	1.26	-1.12	1.0000 
	9	-4	-24	110	138	273	-1.25	0.83	1.0000 
	9	-4	-24	516	364	837	-1.25	0.83	1.0000 
	9	4	-24	598	216	465	1.24	1.1	1.0000 
	-9	-4	-25	2756	1384	3656	1.75	-0.24	1.0000 
	9	4	-25	2638	1243	3488	1.68	-0.31	1.0000 
	-4	-9	25	3230	1489	4176	1.7	0.35	1.0000 
	9	4	-25	2118	991	2886	1.68	-0.31	1.0000 
	-9	-5	0	17644	3065	19499	-1.5	0.11	1.0000 
	9	-5	0	19578	3149	19461	0.13	0.44	1.0000 
	5	-9	0	26282	5590	26106	0.13	0.11	1.0000 
	-9	-5	1	2448	1037	2952	-1.03	-0.58	1.0000 
	9	-5	1	9380	2502	14469	0.83	6.85	1.0000 
	9	-5	-1	1923	1358	3813	0.97	-5.94	1.0000 
	5	-9	-1	1990	1354	3988	0.94	-6.11	1.0000 
	9	-5	-2	42421	6448	42030	-0.24	5.24	1.0000 
	-9	-5	2	39445	5840	37808	-0.96	0.62	1.0000 
	9	-5	-3	2167	1370	4096	3.32	2.76	1.0000 
	-9	-5	3	3621	1663	6374	-3.27	-3.74	1.0000 
	-9	-5	-4	34617	3262	34644	0.06	1.16	1.0000 
	9	-5	-4	30626	2956	31844	-0.74	0.4	1.0000 
	-5	-9	4	38133	3624	38221	0	-0.89	1.0000 
	-9	-5	-5	3677	2098	5002	1.72	-3.9	1.0000 
	9	-5	-5	2684	1711	5157	-4.35	-1.66	1.0000 
	-5	-9	5	3956	1125	5507	1.77	4.63	1.0000 
	-9	-5	-6	8893	1042	8876	-0.1	2.81	1.0000 
	9	-5	-6	9706	1661	9826	0.14	1.59	1.0000 
	-5	-9	6	11259	2588	11068	-0.3	-2.79	1.0000 
	-9	-5	-7	6473	1542	5488	1.45	1.17	1.0000 
	9	-5	-7	7495	1361	7652	0.2	-0.36	1.0000 
	-5	-9	7	9318	1963	8118	1.42	-0.14	1.0000 
	-9	-5	-8	544	1037	1350	2.91	-0.92	1.0000 
	9	-5	-8	284	463	1390	4.51	0.84	1.0000 
	-9	-5	-9	16850	2910	14089	-2.48	-0.87	1.0000 
	9	-5	-9	15668	2434	14571	1	0.96	1.0000 
	9	-5	-10	22557	3191	22006	0.39	-1.52	1.0000 
	-5	-9	10	24822	3315	23567	0.89	0.1	1.0000 
	-5	-9	11	18274	3270	17542	0.61	0.03	1.0000 
	-5	-9	-11	17242	3040	16402	0.72	-0.08	1.0000 
	5	-9	-11	18303	3523	18962	0.53	-0.49	1.0000 
	9	-5	-11	22107	4211	22897	0.58	-0.23	1.0000 
	-5	-9	12	52091	7435	54361	1.12	-1.09	1.0000 
	5	-9	-12	61360	8610	62718	0.64	1.89	1.0000 
	9	-5	-12	52380	7355	53608	0.63	1.64	1.0000 
	-5	-9	13	11604	5648	14901	2.99	-2.97	1.0000 
	-5	-9	-13	8792	3446	11675	3.03	2.75	1.0000 
	9	-5	-13	12635	4907	16147	-3.24	-0.4	1.0000 
	9	-5	-14	76542	12209	72665	1.62	0.9	1.0000 
	-5	-9	14	70945	11740	69708	0.48	1.19	1.0000 
	9	-5	-14	87543	14040	83395	1.62	0.9	1.0000 
	-9	-5	-15	5041	2193	6526	-2.01	2.22	1.0000 
	9	-5	-15	7825	3003	9286	1.74	0.44	1.0000 
	-5	-9	15	9286	5131	11298	-2.02	-2.2	1.0000 
	-9	-5	15	6194	2443	7825	-2.01	-2.1	1.0000 
	-5	-9	-15	4421	1829	5797	-2.01	2.1	1.0000 
	9	-5	-15	13957	3699	15888	1.74	0.44	1.0000 
	-9	-5	16	43179	7863	46693	1.8	0.67	1.0000 
	-5	-9	-16	47842	9126	51534	1.8	-0.64	1.0000 
	5	-9	-16	67352	13366	68697	0.5	-1.17	1.0000 
	-9	-5	17	11662	3087	10408	-1.33	-0.58	1.0000 
	-5	-9	-17	6657	1807	5744	-1.28	0.47	1.0000 
	5	-9	-17	19218	6657	17538	1.38	-0.17	1.0000 
	-9	-5	18	48793	9740	40409	4.38	0.73	1.0000 
	-5	-9	-18	23971	4933	18215	4.37	-0.86	1.0000 
	-9	-5	19	6149	2031	6876	-0.98	1.15	1.0000 
	9	-5	-19	15153	4240	16084	0.82	0.36	1.0000 
	-9	-5	20	18703	5400	18963	0.19	0.46	1.0000 
	-5	-9	20	27718	7543	28061	0.2	0.5	1.0000 
	5	-9	-20	35742	10079	37235	0.81	-0.96	1.0000 
	9	-5	-20	29719	8805	31123	0.84	-0.9	1.0000 
	9	5	-21	4292	1136	3604	-1.21	0.14	1.0000 
	-9	-5	21	3007	791	2436	-1.21	-0.14	1.0000 
	-5	-9	21	7233	1858	6291	-1.27	-0.13	1.0000 
	5	-9	-21	8713	2970	7135	2	1.09	1.0000 
	9	-5	-21	6040	1389	4755	1.98	1.23	1.0000 
	9	5	-22	4694	1639	4698	-0.02	-0.96	1.0000 
	-5	-9	22	6963	2040	6962	-0.01	0.96	1.0000 
	5	-9	-22	7506	2294	7783	-0.36	-0.67	1.0000 
	9	-5	-22	5444	1623	5699	-0.39	-0.6	1.0000 
	9	5	-22	2890	1103	2889	-0.02	-0.96	1.0000 
	9	5	-23	1565	552	1581	-0.04	-0.74	1.0000 
	9	-5	-23	1204	636	1137	-0.22	0.07	1.0000 
	-5	-9	23	1691	598	1717	-0.06	0.75	1.0000 
	9	-5	-23	1240	474	1172	-0.22	0.07	1.0000 
	9	-5	-23	1689	553	1610	-0.22	0.07	1.0000 
	-9	-6	0	13969	1503	14451	-0.49	-0.53	1.0000 
	-6	-9	0	17330	1885	17869	-0.47	-0.18	1.0000 
	-9	-6	1	65	519	1395	5.54	3.55	1.0000 
	-9	-6	1	2403	2637	6177	5.54	3.55	1.0000 
	-9	-6	-1	621	1020	2810	5.63	-2.68	1.0000 
	-9	-6	-2	31173	4794	31979	0.43	-1.11	1.0000 
	-9	-6	2	31520	4885	32116	0.32	0.78	1.0000 
	-9	-6	2	24753	3531	25281	0.32	0.78	1.0000 
	-9	-6	-3	10480	2578	10368	0.18	-2.56	1.0000 
	9	6	-3	9435	2366	9284	0.19	-2.04	1.0000 
	-9	-6	3	11192	3269	11036	0.19	2.04	1.0000 
	6	-9	3	11252	3869	10729	-0.75	4.24	1.0000 
	9	-6	-3	29036	4025	28430	-0.7	-4	1.0000 
	-9	-6	-4	25604	3341	21095	3.46	1.99	1.0000 
	-9	-6	4	23348	2742	19400	3.23	-2.36	1.0000 
	-6	-9	5	26902	3617	25632	-1.16	-5.31	1.0000 
	-9	-6	5	20699	2746	19468	-1.2	-5.3	1.0000 
	-6	-9	6	5517	1786	5925	0.58	0.21	1.0000 
	-9	-6	-7	31625	4809	31737	-0.07	-2.45	1.0000 
	-6	-9	7	29889	4185	30004	-0.08	2.44	1.0000 
	-6	-9	8	4993	2203	6409	-0.82	6.5	1.0000 
	-6	-9	9	33941	4494	32396	-1.06	1.96	1.0000 
	9	-6	-9	39052	4816	34516	2.61	0.3	1.0000 
	-6	-9	10	26384	3873	20538	4.24	-0.08	1.0000 
	9	-6	-10	37039	6240	28640	5.18	0.69	1.0000 
	-6	-9	-11	23463	5750	27798	-3.02	-0.71	1.0000 
	9	-6	-11	27189	7275	30534	2.19	-0.57	1.0000 
	9	-6	-12	36285	6363	37296	0.61	0.72	1.0000 
	-9	-6	-13	5268	2374	6497	1.29	-3.98	1.0000 
	9	-6	-13	6458	2256	7795	-1.53	-2.73	1.0000 
	-6	-9	-13	7565	2694	9119	1.33	-3.97	1.0000 
	9	-6	-13	12912	4391	14832	-1.53	-2.73	1.0000 
	9	-6	-14	23373	6829	28301	-3.44	-1.12	1.0000 
	6	-9	-14	45279	13719	52076	-3.45	-1.12	1.0000 
	9	-6	-14	45927	13409	52752	-3.44	-1.12	1.0000 
	9	-6	-15	1117	611	1409	0.82	1.08	1.0000 
	-6	-9	-15	1938	776	2178	0.5	-2.9	1.0000 
	-6	-9	16	20905	5688	23517	2	-1.85	1.0000 
	-9	-6	16	19959	5796	22556	2.03	-1.79	1.0000 
	6	-9	-16	27756	8064	32592	3.11	0.49	1.0000 
	-9	-6	-17	1286	472	1071	-0.97	-1.07	1.0000 
	9	-6	-17	673	360	1146	-0.91	1.84	1.0000 
	-9	-6	17	3071	975	2719	-0.91	0.87	1.0000 
	-6	-9	-17	642	265	504	-0.97	-1.27	1.0000 
	9	-6	-17	2186	1066	3005	-0.91	1.84	1.0000 
	9	-6	-17	262	263	570	-0.91	1.84	1.0000 
	9	-6	-18	15182	4778	16157	-0.86	0.14	1.0000 
	-9	-6	18	19449	5408	20072	-0.52	0.65	1.0000 
	-6	-9	-18	15918	4764	16523	-0.56	-0.78	1.0000 
	-9	-6	-19	402	374	808	1.86	0.85	1.0000 
	9	-6	-19	411	304	626	-1.07	0.18	1.0000 
	-9	-6	19	710	403	1234	1.87	-0.79	1.0000 
	-6	-9	-19	99	168	326	1.86	0.79	1.0000 
	9	-6	-19	522	345	762	-1.07	0.18	1.0000 
	-9	-6	-20	12562	3716	12192	-0.37	0	1.0000 
	9	-6	-20	8844	2259	7852	-1.21	-0.18	1.0000 
	-9	-6	20	10626	3016	10268	-0.39	-0.02	1.0000 
	-6	-9	-20	3154	1341	2948	-0.41	0.05	1.0000 
	6	-9	-20	22287	5716	20711	-1.19	-0.05	1.0000 
	9	-6	-20	17354	4484	15953	-1.21	-0.18	1.0000 
	-9	-6	-21	1368	403	916	2.07	1.27	1.0000 
	9	-6	-21	1602	430	1035	-1.7	-0.94	1.0000 
	-9	-6	21	1424	403	951	2.07	-1.2	1.0000 
	6	-9	-21	2147	539	1490	-1.68	-0.94	1.0000 
	9	-6	-21	2381	585	1680	-1.7	-0.94	1.0000 
	9	-6	-21	1190	295	708	-1.7	-0.94	1.0000 
	-9	-7	0	253	188	261	0.08	-0.29	1.0000 
	-7	-9	0	326	310	332	0.06	-0.28	1.0000 
	7	-9	0	881	325	768	-0.43	-0.14	1.0000 
	-9	-7	-1	113	158	77	-1.12	-2.2	1.0000 
	-9	-7	1	384	209	403	-1.13	1.78	1.0000 
	-7	-9	1	383	245	394	-1.1	1.73	1.0000 
	7	-9	-1	494	144	149	2.25	-0.14	1.0000 
	7	-9	1	420	138	101	2.32	-0.03	1.0000 
	9	-7	-1	458	170	132	2.3	-0.48	1.0000 
	-9	-7	2	859	675	1622	2.08	-2.6	1.0000 
	-7	-9	-2	1480	781	2463	2.06	2.57	1.0000 
	7	-9	2	925	644	1714	-0.83	4.35	1.0000 
	9	-7	2	913	666	1738	-0.9	4.49	1.0000 
	-7	-9	-3	13821	2282	12588	1.17	-0.37	1.0000 
	-9	-7	3	10986	2584	9806	1.25	1.14	1.0000 
	7	-9	3	13542	2981	12510	-1.28	-3.05	1.0000 
	-9	-7	4	2072	1655	4174	-3.82	-1.93	1.0000 
	7	-9	-4	1260	1016	3107	-4.29	-2.04	1.0000 
	-9	-7	-5	25134	4009	23224	-1.48	-1.55	1.0000 
	-7	-9	6	2844	3050	7270	-7.07	-0.41	1.0000 
	-7	-9	7	35601	6479	38099	-1.48	0.85	1.0000 
	-7	-9	8	7965	2760	8679	-0.39	-5.8	1.0000 
	-7	-9	9	39678	9634	40071	0.26	-1.75	1.0000 
	9	-7	9	52999	12400	51622	0.65	-0.4	1.0000 
	-9	-7	10	13411	3362	12689	0.69	0.35	1.0000 
	-7	-9	10	19456	5515	18671	0.62	0.52	1.0000 
	-9	-7	11	26899	6379	26485	0.42	-2.03	1.0000 
	-7	-9	11	28762	6827	28297	0.45	-2.07	1.0000 
	-7	-9	-11	40112	9553	39611	0.44	2.13	1.0000 
	9	-7	-11	33306	9320	34520	0.76	-1.27	1.0000 
	-9	-7	-12	17721	4597	18981	0.92	-1.65	1.0000 
	-7	-9	12	15998	4584	17261	0.99	1.52	1.0000 
	7	-9	-12	21115	5362	21128	-0.04	-0.92	1.0000 
	9	-7	-12	25639	6631	25646	-0.04	-0.87	1.0000 
	-9	-7	-13	5019	2283	3817	-1.96	1.76	1.0000 
	-7	-9	13	14364	3705	12293	-1.98	-1.71	1.0000 
	-7	-9	-13	15463	3638	13356	-1.95	1.78	1.0000 
	7	-9	-13	15377	3657	14049	1.27	-1.11	1.0000 
	9	-7	-13	14825	3467	13542	1.26	-1.14	1.0000 
	-9	-7	-14	2440	1667	2468	-0.05	0.28	1.0000 
	-7	-9	14	9132	2615	9135	0.02	-0.41	1.0000 
	9	-7	-14	13925	3917	13029	0.9	0.62	1.0000 
	7	-9	-14	14805	4187	13873	0.9	0.61	1.0000 
	-9	-7	-15	161	115	143	0.16	1.55	1.0000 
	-7	-9	15	708	314	722	0.24	-1.71	1.0000 
	-7	-9	-15	936	295	975	0.14	1.57	1.0000 
	9	-7	-15	1053	390	1269	0.6	-1.48	1.0000 
	-9	-7	-16	358	392	541	0.9	-0.68	1.0000 
	-7	-9	16	1640	606	2015	0.88	0.7	1.0000 
	-9	-7	16	1400	553	1739	0.85	0.76	1.0000 
	-7	-9	-16	1436	517	1779	0.86	-0.71	1.0000 
	9	-7	-16	1720	640	2047	0.8	-0.37	1.0000 
	7	-9	-16	2164	805	2525	0.8	-0.29	1.0000 
	-9	-7	-17	32	109	133	-1.49	-0.75	1.0000 
	-9	-7	17	304	240	570	-1.46	0.79	1.0000 
	-7	-9	17	249	226	489	-1.45	0.77	1.0000 
	-7	-9	-17	146	177	344	-1.5	-0.75	1.0000 
	9	-7	-17	636	288	641	-0.01	0.41	1.0000 
	7	-9	-17	1124	520	1138	0.02	0.36	1.0000 
	-9	-7	-18	420	539	633	-1	0.54	1.0000 
	-9	-7	18	1990	1014	2423	-0.99	-0.39	1.0000 
	-7	-9	18	3470	1474	4039	-1	-0.43	1.0000 
	-7	-9	-18	1733	809	2141	-0.99	0.51	1.0000 
	9	-7	-18	3270	1470	4181	-1.59	0.73	1.0000 
	7	-9	-18	3297	1458	4205	-1.58	0.71	1.0000 
	-8	-9	0	2945	877	2460	-1.05	-0.24	1.0000 
	8	-9	0	3002	661	2050	-2.12	-0.13	1.0000 
	-9	-8	-1	1000	708	1566	0.92	4.71	1.0000 
	-8	-9	-1	1198	806	1864	0.94	4.7	1.0000 
	8	-9	-1	1921	711	2253	-0.68	-1.24	1.0000 
	8	-9	1	1759	659	2112	-0.77	1.28	1.0000 
	9	-8	1	1361	530	1679	-0.76	1.47	1.0000 
	8	-9	2	78	460	960	-1.99	-4.74	1.0000 
	-9	-8	4	3485	2446	6262	-3.6	3.22	1.0000 
	8	-9	4	2913	2297	5114	-3.76	-1.44	1.0000 
	-8	-9	5	43143	8859	36823	-3.62	1.52	1.0000 
	-9	-8	5	37769	7674	31885	-3.62	1.61	1.0000 
	-9	-8	6	1602	1180	3604	4.17	1.85	1.0000 
	-8	-9	6	2369	1363	4698	4.15	1.78	1.0000 
	-9	-8	7	34885	9697	36332	-0.7	-2.08	1.0000 
	-8	-9	7	41060	11338	42482	-0.63	-2	1.0000 
	9	-8	-7	45392	13710	47255	1	-2.67	1.0000 
	-9	-8	8	2920	3276	7016	6.58	-0.04	1.0000 
	-8	-9	8	3687	3007	8197	6.59	-0.41	1.0000 
	9	-8	-8	4878	3435	9889	6.55	-0.09	1.0000 
	-9	-8	9	28132	8379	31373	2.1	-0.52	1.0000 
	-8	-9	9	32472	9616	36009	2.14	-0.55	1.0000 
	9	-8	-9	51266	15022	52597	-0.61	-0.84	1.0000 
	-8	-9	10	4688	2335	6772	-2.54	-2.19	1.0000 
	9	-8	-10	5431	2533	8615	-3.26	-3.14	1.0000 
	-8	-9	11	21160	6190	23100	-1.47	0.86	1.0000 
	9	-8	-11	31007	9097	31529	0.33	-0.15	1.0000 
	-8	-9	12	343	1195	3025	-6.02	-5.98	1.0000 
	-8	-9	13	10847	3750	12213	1.43	-0.66	1.0000 
	-9	-8	-13	9796	3132	11008	1.33	0.51	1.0000 
	8	-9	-13	14461	4656	15269	-0.74	0.34	1.0000 
	-9	-8	-14	393	444	759	1.41	1.81	1.0000 
	-8	-9	-14	314	274	652	1.41	1.91	1.0000 
	9	-8	-14	954	520	1460	1.55	0.96	1.0000 
	8	-9	-14	620	449	1071	1.63	1.14	1.0000 
	-9	-9	0	26079	8330	31916	3.83	0.73	1.0000 
	-9	-9	1	3019	2062	7163	6.46	1.35	1.0000 
	-9	-9	2	28827	8004	30663	-1.1	-1.28	1.0000 
	-9	-9	3	8971	3015	8819	0.18	0.08	1.0000 
	-9	-9	4	15848	4946	18850	2.55	-1.21	1.0000 
	-9	-9	5	11645	2603	9819	-1.93	-0.95	1.0000 
	9	-9	5	12203	3268	10663	1.6	0.11	1.0000 
	-9	-9	6	8817	3553	10700	-1.99	-1.56	1.0000 
	-10	0	0	113485	12779	83437	-10.94	-2.44	1.0000 
	-10	0	2	47959	7097	45770	1.37	-2.4	1.0000 
	-10	0	4	15064	2843	17888	2.51	-1.07	1.0000 
	-10	0	6	562	751	1795	-4.04	-0.87	1.0000 
	0	-10	6	538	548	1757	-4.02	-1.01	1.0000 
	-10	0	-8	4839	2095	4564	0.47	-1.09	1.0000 
	10	0	-8	6876	1608	6556	0.49	-1.39	1.0000 
	0	-10	8	5553	789	5237	0.52	1.32	1.0000 
	0	-10	-8	6878	1137	6570	0.45	-1.19	1.0000 
	0	-10	10	43734	4346	38879	-2.7	0.98	1.0000 
	0	-10	-10	43159	3763	38332	-2.66	-0.25	1.0000 
	0	-10	12	61153	5558	60824	0.24	-1.51	1.0000 
	0	-10	14	73137	10615	74694	0.64	-0.07	1.0000 
	0	-10	-14	62204	8736	63635	0.64	0.15	1.0000 
	0	-10	16	55767	10821	61926	-2.81	-0.06	1.0000 
	10	0	-18	13668	2950	12446	-1.09	1.4	1.0000 
	-10	0	-20	2441	1656	3888	-2.91	-0.22	1.0000 
	10	0	-20	3796	1825	5581	-2.94	-0.18	1.0000 
	-10	0	-22	47	151	79	1.49	-1.34	1.0000 
	10	0	-22	61	117	116	1.48	-1.29	1.0000 
	0	-10	22	46	103	70	1.51	1.28	1.0000 
	-10	0	-24	3904	1982	5348	2.36	0	1.0000 
	10	0	-24	4149	1587	5642	2.37	0.04	1.0000 
	0	-10	24	3194	1685	4522	2.38	-0.09	1.0000 
	-10	1	0	77948	12081	78520	0.19	0.62	1.0000 
	1	-10	0	73518	11310	73942	0.2	0.71	1.0000 
	-10	-1	-1	3899	2295	8145	-5.88	2.08	1.0000 
	-10	1	-1	4306	2930	8791	5.68	-3.04	1.0000 
	-10	1	1	3316	2336	7274	5.65	2.87	1.0000 
	1	-10	1	3027	2118	6979	5.62	3.45	1.0000 
	-10	-1	-2	45392	6945	44951	0.18	-0.97	1.0000 
	-10	1	-2	35955	5876	37940	-1.2	-1.09	1.0000 
	-10	1	2	40516	6548	42403	-1.08	1.24	1.0000 
	1	-10	2	42547	6873	44690	-1.2	1.32	1.0000 
	-10	1	-3	4380	1914	5455	-1.51	1.53	1.0000 
	-10	1	3	3533	1691	4507	-1.46	-1.75	1.0000 
	-10	-1	-3	3589	2271	5228	2.65	1.18	1.0000 
	1	-10	-3	3296	1404	4231	-1.47	1.66	1.0000 
	1	-10	3	1857	806	2562	-1.48	-1.65	1.0000 
	-10	1	-4	16077	2922	18120	1.75	0.28	1.0000 
	-10	1	4	16038	3395	18021	1.71	-0.33	1.0000 
	-10	-1	-4	16373	2430	15086	-1.17	-0.37	1.0000 
	-1	-10	4	20448	3558	19026	-1.18	0.61	1.0000 
	1	-10	-4	15376	2950	17399	1.78	0.37	1.0000 
	-10	1	5	2972	903	2383	-1.35	-1.1	1.0000 
	-10	-1	-5	2795	909	2385	1.1	-1.44	1.0000 
	-10	1	-5	2283	666	1777	-1.3	0.97	1.0000 
	-1	-10	5	2239	538	1870	1.11	1.49	1.0000 
	1	-10	-5	2460	599	1946	-1.28	1.05	1.0000 
	-10	1	6	1607	807	2013	-0.99	-0.48	1.0000 
	-10	-1	-6	1179	682	1593	-1.11	-2.69	1.0000 
	-10	1	-6	1649	697	1996	-0.89	0.14	1.0000 
	-1	-10	6	1325	494	1746	-1.11	2.38	1.0000 
	-10	-1	7	1003	264	748	-0.95	-0.15	1.0000 
	-10	1	-7	589	217	526	0.62	-1.93	1.0000 
	10	-1	-7	688	200	616	0.67	-1.93	1.0000 
	-1	-10	7	665	168	460	-0.96	-0.24	1.0000 
	1	-10	-7	557	218	471	0.69	-1.76	1.0000 
	1	-10	8	3594	1314	4065	-0.61	-2.65	1.0000 
	-1	-10	8	6045	1021	6201	-0.18	-0.95	1.0000 
	1	-10	-8	6341	1188	6982	-0.56	2.72	1.0000 
	1	-10	9	108	153	424	1.68	1.76	1.0000 
	-1	-10	9	730	439	1153	-1.46	0.62	1.0000 
	1	-10	-9	1117	732	1890	1.74	-1.51	1.0000 
	1	-10	10	32573	4477	30153	-1.5	-0.4	1.0000 
	10	-1	-11	1731	1752	4202	-5.14	0.16	1.0000 
	1	-10	11	704	910	2498	-5.18	-0.27	1.0000 
	1	-10	-11	4544	1704	8173	-5.09	-0.24	1.0000 
	10	-1	-12	57515	8256	58446	-0.46	-1.14	1.0000 
	1	-10	12	55401	9338	56357	-0.48	1.12	1.0000 
	1	-10	13	1461	1035	3163	1.41	-4.14	1.0000 
	-10	-1	-14	59775	8429	61416	0.67	-1.24	1.0000 
	10	-1	-14	59498	8661	62474	1.26	-1.38	1.0000 
	1	-10	14	67029	10392	70033	1.19	1.35	1.0000 
	-1	-10	14	61681	9077	63229	0.61	1.25	1.0000 
	1	-10	-14	60702	8756	63742	1.26	-1.51	1.0000 
	-10	1	-15	82	1254	1921	-5.43	5.46	1.0000 
	1	-10	15	134	781	2100	-5.41	-5.32	1.0000 
	1	-10	-15	2929	2937	7730	-5.46	5.12	1.0000 
	1	-10	-16	54651	8846	52135	1.22	0.14	1.0000 
	-10	1	-17	889	847	1532	-2	0.75	1.0000 
	1	-10	17	1233	864	1966	-1.99	-0.66	1.0000 
	1	-10	-17	4808	2154	6225	-2.04	0.79	1.0000 
	10	-1	-17	1495	742	2312	-2.03	0.7	1.0000 
	-10	1	-18	21723	3943	21601	-0.03	1.41	1.0000 
	1	-10	18	26789	4703	26683	-0.01	-1.38	1.0000 
	1	-10	-18	31350	6405	31194	-0.04	1.52	1.0000 
	10	-1	-18	23312	4384	23196	-0.02	1.47	1.0000 
	-10	1	-19	387	326	551	0.84	-0.19	1.0000 
	-1	-10	19	3307	938	2721	1.26	-1.15	1.0000 
	1	-10	19	1185	617	1458	0.82	0.24	1.0000 
	10	-1	-19	1340	720	1619	0.79	-0.25	1.0000 
	-10	-1	-20	7829	2825	6932	1.25	0.9	1.0000 
	-10	1	-20	6641	2654	6165	0.74	0.77	1.0000 
	10	1	-20	10092	4221	9091	1.24	0.92	1.0000 
	10	-1	-20	8819	3025	8264	0.72	0.6	1.0000 
	-1	-10	20	10456	2554	9399	1.28	-0.91	1.0000 
	1	-10	20	9093	2658	8510	0.75	-0.61	1.0000 
	-10	-1	-21	1460	645	1450	-0.02	0.21	1.0000 
	-10	1	-21	1551	658	2024	-1.21	-0.72	1.0000 
	10	1	-21	2129	651	2111	-0.04	0.39	1.0000 
	10	-1	-21	1405	726	1860	-1.21	-0.75	1.0000 
	-1	-10	21	2437	729	2430	-0.01	-0.35	1.0000 
	1	-10	21	1308	544	1748	-1.21	0.73	1.0000 
	-10	-1	-22	1644	705	1805	0.45	0.32	1.0000 
	10	1	-22	1812	823	1967	0.41	0.29	1.0000 
	10	-1	-22	2325	688	2306	-0.04	0.06	1.0000 
	-1	-10	22	2076	696	2241	0.41	-0.26	1.0000 
	-10	-1	-23	1052	573	1564	-1.56	-0.85	1.0000 
	10	1	-23	1095	612	1609	-1.55	-0.73	1.0000 
	10	-1	-23	718	599	1584	2.87	0.4	1.0000 
	-1	-10	23	812	464	1263	-1.56	0.7	1.0000 
	-10	-1	-24	15	83	29	-0.37	0.11	1.0000 
	10	1	-24	112	100	152	-0.4	0.04	1.0000 
	10	-1	-24	16	115	111	1.78	-0.79	1.0000 
	-1	-10	24	31	68	54	-0.41	-0.05	1.0000 
	-10	-2	0	13182	2625	16410	2.95	0.07	1.0000 
	-10	-2	-1	4431	1691	3927	1.11	-1.89	1.0000 
	-10	-2	1	4939	1527	4537	1.17	2.64	1.0000 
	-2	-10	-1	4879	1662	4360	1.06	-1.75	1.0000 
	-2	-10	1	3511	1044	3140	1.25	2.79	1.0000 
	2	-10	-1	2283	921	2997	1.49	0.88	1.0000 
	-10	-2	-2	4791	1750	6045	-1.82	0.89	1.0000 
	-10	-2	2	5427	1860	6754	-1.81	-0.94	1.0000 
	-2	-10	2	4973	2028	6264	-1.84	-0.88	1.0000 
	-10	-2	3	8454	1924	8079	-0.67	2.18	1.0000 
	-10	-2	-3	6783	2733	6408	-0.68	-1.97	1.0000 
	-2	-10	3	9132	1830	8759	-0.65	2.13	1.0000 
	2	-10	-3	11785	2078	12476	-0.51	-2.05	1.0000 
	2	-10	3	4034	1588	4315	-0.38	1.84	1.0000 
	-10	-2	4	5027	1427	3992	-2.06	1.72	1.0000 
	-10	-2	-4	4896	1344	3843	-2.17	-1.89	1.0000 
	-10	-2	4	3401	979	2545	-2.06	1.72	1.0000 
	2	-10	-4	4896	1213	4123	-2.34	-3.43	1.0000 
	-10	-2	5	5710	1789	6262	-0.47	-2.89	1.0000 
	-10	-2	5	5238	1763	5760	-0.47	-2.89	1.0000 
	10	-2	-6	3362	810	2355	3.81	-3.75	1.0000 
	-2	-10	6	2982	714	2195	1.74	-0.19	1.0000 
	-10	-2	6	2072	462	1421	1.76	-0.27	1.0000 
	10	-2	-7	3392	1075	3000	0.81	0.5	1.0000 
	-2	-10	7	3763	916	3086	-1.37	-0.96	1.0000 
	-10	-2	7	2298	593	1818	-1.27	-1.08	1.0000 
	2	-10	-7	4015	1170	3543	0.91	0.64	1.0000 
	10	2	-8	174	172	38	-1.55	-0.09	1.0000 
	10	-2	-8	439	148	213	-2.32	-1.41	1.0000 
	-2	-10	8	585	177	295	-1.55	-0.01	1.0000 
	2	-10	-8	340	128	135	-2.4	-1.48	1.0000 
	-10	-2	-9	15	106	85	0.9	-1.47	1.0000 
	10	2	-9	16	140	97	0.95	-1.5	1.0000 
	10	-2	-9	162	154	123	-1.66	1.95	1.0000 
	-2	-10	9	21	106	124	0.94	1.63	1.0000 
	2	-10	-9	197	246	191	-1.7	2.07	1.0000 
	-10	-2	-10	542	519	1439	3.27	1.42	1.0000 
	10	2	-10	756	680	1813	3.34	1.43	1.0000 
	10	-2	-10	1106	625	1729	1.74	2.12	1.0000 
	-2	-10	10	935	667	2077	3.31	-1.5	1.0000 
	2	-10	-10	1497	722	2236	1.77	2.12	1.0000 
	-10	-2	-11	9	247	107	-2.09	-2.01	1.0000 
	10	2	-11	2	115	163	-2.11	-2.12	1.0000 
	10	-2	-11	43	83	145	-1.24	0.34	1.0000 
	2	-10	11	10	63	10	-1.32	-0.3	1.0000 
	-2	-10	11	18	164	292	-2.07	2.03	1.0000 
	2	-10	-11	291	262	536	-1.3	0.68	1.0000 
	-10	-2	-12	4008	1710	4212	-0.37	-0.61	1.0000 
	10	2	-12	4306	1439	4508	-0.35	-0.43	1.0000 
	10	-2	-12	5442	1517	5390	0.07	-0.26	1.0000 
	2	-10	12	3256	1111	3222	0.05	0.28	1.0000 
	2	-10	-12	6190	1657	6107	0.11	-0.27	1.0000 
	-10	-2	-13	353	300	468	0.13	-1.85	1.0000 
	10	2	-13	309	170	398	0.11	-1.72	1.0000 
	10	-2	-13	720	256	792	-0.31	-1.72	1.0000 
	2	-10	13	106	67	84	-0.38	2.17	1.0000 
	2	-10	-13	662	344	696	-0.33	-1.55	1.0000 
	-10	-2	-14	5584	1824	5368	-0.31	1.71	1.0000 
	-10	2	-14	5316	1790	4655	-1.06	-0.23	1.0000 
	10	2	-14	5973	1824	5783	-0.27	1.85	1.0000 
	10	-2	-14	7103	1985	6333	-1.05	-0.07	1.0000 
	2	-10	14	5029	1136	4398	-1.03	0.14	1.0000 
	2	-10	-14	8910	2103	8023	-1.08	-0.17	1.0000 
	-10	2	-15	303	161	223	0.56	-0.38	1.0000 
	10	-2	-15	606	198	463	0.69	-0.14	1.0000 
	10	2	-15	499	303	525	-0.05	-1.05	1.0000 
	2	-10	15	449	153	344	0.61	0.42	1.0000 
	-2	-10	15	503	273	524	-0.03	0.9	1.0000 
	2	-10	-15	1524	596	1300	0.66	-0.09	1.0000 
	-10	-2	-16	6352	2053	6215	0.27	0.89	1.0000 
	-10	2	-16	5794	2117	5064	1.1	-0.05	1.0000 
	10	2	-16	6434	2017	6304	0.27	0.99	1.0000 
	10	-2	-16	8239	2292	7333	1.14	0.02	1.0000 
	2	-10	16	6020	1474	5278	1.1	-0.04	1.0000 
	-2	-10	16	7561	2134	7442	0.25	-1.05	1.0000 
	2	-10	-16	8308	2069	7400	1.13	-0.11	1.0000 
	10	-2	-16	6711	1677	5896	1.14	0.02	1.0000 
	-10	2	-17	16	102	140	0.01	2.07	1.0000 
	10	2	-17	105	156	306	0.81	1.77	1.0000 
	10	-2	-17	75	154	287	0.02	2.03	1.0000 
	2	-10	17	9	71	53	0.05	-1.97	1.0000 
	-2	-10	17	45	131	185	0.82	-1.78	1.0000 
	2	-10	-17	276	386	655	0.01	2.14	1.0000 
	10	-2	-17	187	214	489	0.02	2.03	1.0000 
	-10	-2	-18	1272	583	1221	-0.18	-0.2	1.0000 
	-10	2	-18	1203	513	1026	-0.75	-0.95	1.0000 
	10	2	-18	1642	711	1576	-0.2	-0.12	1.0000 
	10	-2	-18	1908	538	1683	-0.76	-0.91	1.0000 
	2	-10	18	1380	531	1189	-0.75	0.9	1.0000 
	-2	-10	18	1655	692	1601	-0.16	0.11	1.0000 
	2	-10	-18	1842	734	1631	-0.74	-0.97	1.0000 
	10	-2	-18	1442	526	1244	-0.76	-0.91	1.0000 
	-10	-2	-19	363	201	291	0.79	1.07	1.0000 
	-10	2	-19	201	122	93	-1.06	0.62	1.0000 
	10	2	-19	400	180	319	0.82	1.03	1.0000 
	10	-2	-19	707	303	491	-1.09	0.61	1.0000 
	-2	-10	19	130	165	74	0.82	-1.13	1.0000 
	2	-10	-19	452	164	294	-1.03	0.72	1.0000 
	10	-2	-19	586	213	390	-1.09	0.61	1.0000 
	-10	-2	-20	219	151	180	0.34	0.08	1.0000 
	-10	2	-20	234	164	149	1.05	-1.38	1.0000 
	10	2	-20	177	190	142	0.34	0.1	1.0000 
	10	-2	-20	364	165	271	1.04	-1.38	1.0000 
	-2	-10	20	593	308	534	0.33	-0.15	1.0000 
	2	-10	-20	282	231	221	1.1	-1.63	1.0000 
	10	-2	-20	209	85	126	1.04	-1.38	1.0000 
	-10	-2	-21	481	274	485	0.02	-0.06	1.0000 
	-10	2	-21	337	247	472	-0.73	-0.24	1.0000 
	10	2	-21	753	354	748	-0.07	-0.4	1.0000 
	10	-2	-21	474	321	623	-0.69	-0.3	1.0000 
	-2	-10	21	561	282	559	-0.03	0.18	1.0000 
	2	-10	-21	414	292	560	-0.72	-0.19	1.0000 
	10	-2	-21	169	134	262	-0.69	-0.3	1.0000 
	-10	-2	-22	10	100	52	-0.89	0.33	1.0000 
	-10	2	-22	15	177	-44	0.79	-0.36	1.0000 
	10	2	-22	20	202	-38	-0.95	0.29	1.0000 
	10	-2	-22	13	99	52	0.77	-0.38	1.0000 
	-2	-10	22	1	79	17	-0.93	-0.33	1.0000 
	-10	-2	-23	520	241	478	0.78	1.38	1.0000 
	-10	2	-23	325	202	342	0.11	-0.16	1.0000 
	10	-2	-23	569	289	602	0.16	-0.2	1.0000 
	10	2	-23	577	252	512	0.77	1.19	1.0000 
	-2	-10	23	524	220	479	0.81	-1.39	1.0000 
	-10	-3	0	29370	2588	25272	2.73	-0.7	1.0000 
	-10	3	0	29291	2441	24829	3.01	-0.11	1.0000 
	-10	-3	1	6523	879	7046	-0.34	-2.33	1.0000 
	-10	3	-1	11225	2893	13326	1.96	1.48	1.0000 
	-10	3	1	4607	1547	5982	1.96	-1.54	1.0000 
	-10	-3	2	42424	4160	40537	-1.02	-2.01	1.0000 
	-10	3	-2	31276	2894	30377	-0.56	2.3	1.0000 
	-10	3	2	40254	3662	39150	-0.61	-2.15	1.0000 
	-10	-3	-3	9894	2633	9473	-0.51	1.31	1.0000 
	-10	3	-3	9584	2485	8655	1.08	0.86	1.0000 
	3	-10	-3	9494	1752	8582	1.07	0.84	1.0000 
	-10	-3	-4	30614	2584	26290	2.84	-0.19	1.0000 
	10	-3	-4	24589	2418	25182	-0.26	2.68	1.0000 
	-3	-10	4	29476	2471	25305	2.79	0.18	1.0000 
	3	-10	-4	28493	4811	29181	-0.26	2.88	1.0000 
	-10	-3	-5	5708	2234	7613	-2.6	-0.22	1.0000 
	10	-3	-5	10179	2385	10603	0.44	-1.44	1.0000 
	-3	-10	-5	5916	1455	7803	-2.53	-0.37	1.0000 
	-10	-3	-6	6195	1131	7727	1.99	1.79	1.0000 
	10	-3	-6	7211	1895	8481	1.33	3.42	1.0000 
	-3	-10	-6	4843	1190	6182	1.94	2.19	1.0000 
	-3	-10	6	8738	2040	10512	1.96	-1.58	1.0000 
	-10	-3	-7	5694	2119	6287	0.83	-0.46	1.0000 
	10	3	-7	6032	1108	6726	0.95	-0.46	1.0000 
	-3	-10	7	8072	1664	8789	0.86	0.16	1.0000 
	10	3	-8	197	455	1165	-1.21	4.36	1.0000 
	-10	-3	8	10	164	498	-1.21	-4.36	1.0000 
	-10	-3	9	2895	956	2987	-0.19	0.28	1.0000 
	3	-10	-9	7135	1586	5951	-1.66	0.68	1.0000 
	-10	-3	10	2292	600	1703	1.46	0.23	1.0000 
	3	-10	-10	4208	1223	3822	0.91	-2	1.0000 
	-10	-3	11	4453	1255	4567	0.16	0.83	1.0000 
	3	-10	-11	9906	2479	9212	0.79	-0.01	1.0000 
	-3	-10	12	6599	1912	6898	0.27	-2.5	1.0000 
	-10	3	-13	7546	1972	4879	-3.77	0.13	1.0000 
	-3	-10	13	15148	5082	11458	3.64	1.33	1.0000 
	-10	3	-14	3750	2051	4727	-1.69	-0.93	1.0000 
	-3	-10	14	7884	2792	9409	-1.82	0.05	1.0000 
	3	-10	-14	8757	3328	10272	-1.74	-0.92	1.0000 
	-10	3	-15	4490	1561	3579	1.6	-1.08	1.0000 
	-3	-10	15	8556	2116	7069	-1.87	-0.34	1.0000 
	3	-10	-15	9894	2414	8508	1.63	-1.08	1.0000 
	-10	-3	-16	3479	1297	3822	0.49	-1.35	1.0000 
	-10	3	-16	2165	1071	2394	0.57	1.24	1.0000 
	-3	-10	16	4194	1328	4578	0.5	1.33	1.0000 
	3	-10	-16	5479	1665	5866	0.59	1.15	1.0000 
	10	-3	-16	4205	1245	4570	0.64	1.04	1.0000 
	-10	-3	-17	395	286	412	-0.09	0.49	1.0000 
	-10	3	-17	244	234	276	0.19	-0.67	1.0000 
	-3	-10	17	709	322	725	-0.05	-0.54	1.0000 
	3	-10	-17	1292	723	1371	0.18	-0.63	1.0000 
	10	-3	-17	709	346	758	0.15	-0.63	1.0000 
	-10	-3	-18	5461	2479	6093	-0.89	0.65	1.0000 
	-10	3	-18	3356	1532	3252	0.22	0.37	1.0000 
	10	-3	-18	7906	2413	7693	0.27	0.14	1.0000 
	-3	-10	18	7896	2668	8671	-0.91	-0.57	1.0000 
	3	-10	-18	10323	2589	10105	0.25	0.23	1.0000 
	10	-3	-18	7875	2273	7663	0.27	0.14	1.0000 
	-10	3	-19	80	152	147	0.64	1.47	1.0000 
	10	-3	-19	433	280	639	0.68	1.52	1.0000 
	-3	-10	19	653	293	602	0.31	0.5	1.0000 
	3	-10	-19	449	336	642	0.63	1.46	1.0000 
	10	-3	-19	545	372	779	0.68	1.52	1.0000 
	-10	-3	-20	6131	1706	5017	-1.64	0.59	1.0000 
	-10	3	-20	2729	1045	2043	-1.54	0.97	1.0000 
	10	-3	-20	8058	2839	6855	-1.54	0.8	1.0000 
	-3	-10	20	7847	1996	6570	-1.66	-0.5	1.0000 
	3	-10	-20	9002	2220	7743	-1.52	0.96	1.0000 
	10	-3	-20	5729	1375	4721	-1.54	0.8	1.0000 
	-10	-3	-21	1310	397	1168	-0.61	-1.05	1.0000 
	-10	3	-21	734	237	414	1.48	0.84	1.0000 
	10	3	-21	1562	447	1439	-0.54	-1.13	1.0000 
	10	-3	-21	1667	362	1182	1.45	0.9	1.0000 
	-3	-10	21	1168	321	1045	-0.59	1.14	1.0000 
	3	-10	-21	1807	423	1297	1.45	0.84	1.0000 
	10	-3	-21	1196	353	789	1.45	0.9	1.0000 
	-10	-3	-22	2105	885	2208	-0.25	-0.27	1.0000 
	-10	3	-22	800	426	669	0.53	-0.3	1.0000 
	10	-3	-22	2700	914	2473	0.49	-0.27	1.0000 
	10	3	-22	2324	899	2386	-0.15	-0.23	1.0000 
	-3	-10	22	2305	836	2408	-0.24	0.15	1.0000 
	3	-10	-22	2341	752	2130	0.49	-0.34	1.0000 
	10	-3	-22	1184	430	1035	0.49	-0.27	1.0000 
	-4	-10	0	87645	7302	79796	3.05	0.69	1.0000 
	10	-4	-1	4822	1482	5774	1.02	-2.61	1.0000 
	-4	-10	1	14472	3185	16384	-1.67	0.65	1.0000 
	4	-10	-1	8204	1824	9400	0.97	-2.51	1.0000 
	10	-4	-2	80565	7104	78765	-0.7	0.07	1.0000 
	-10	-4	2	72259	6415	70822	-0.54	-2.12	1.0000 
	-10	-4	3	7492	3159	11144	4.09	-1.97	1.0000 
	10	-4	-3	17558	3114	22241	-2.89	4.31	1.0000 
	4	-10	3	5908	3676	8701	-2.93	-4.53	1.0000 
	-10	-4	4	51573	7689	53047	-0.75	2.72	1.0000 
	10	-4	-4	52722	7027	51569	0.57	-4.17	1.0000 
	-4	-10	4	53141	7490	54564	-0.71	2.95	1.0000 
	-10	-4	5	4401	1575	6331	-2.55	3.4	1.0000 
	10	-4	-5	7242	1984	7573	0.4	-1	1.0000 
	10	-4	-6	17756	3248	13285	-4.02	-0.51	1.0000 
	-10	-4	6	10465	2637	11096	0.63	0.88	1.0000 
	10	-4	-7	2604	851	2429	0.59	-1.99	1.0000 
	-10	-4	7	3225	897	2429	-2.1	2.75	1.0000 
	-4	-10	-7	3462	824	2606	-2.07	-2.41	1.0000 
	4	-10	-7	2881	915	2699	0.6	-1.99	1.0000 
	10	4	-8	134	213	447	-2.12	0.04	1.0000 
	10	-4	-8	80	152	390	-1.92	1.73	1.0000 
	-10	-4	8	6	88	145	-2.12	-0.04	1.0000 
	-10	-4	-9	361	237	582	-0.77	-2.03	1.0000 
	10	4	-9	400	254	672	-0.85	-2.25	1.0000 
	10	-4	-9	536	216	640	-0.02	-2.54	1.0000 
	-4	-10	-9	373	255	605	-0.81	-2	1.0000 
	-10	-4	9	288	175	509	-0.85	2.25	1.0000 
	4	-10	-9	699	322	836	-0.05	-2.59	1.0000 
	10	-4	-10	8877	2444	8899	0.04	0.81	1.0000 
	-10	-4	10	7158	1966	7320	-0.21	0	1.0000 
	-4	-10	-10	7799	1983	8010	-0.26	0.1	1.0000 
	-10	-4	11	1470	736	2217	1.92	-0.77	1.0000 
	-4	-10	11	3204	1386	4276	1.94	-0.55	1.0000 
	-4	-10	12	25422	4764	27738	1.58	-0.1	1.0000 
	-10	-4	12	15840	3432	17625	1.54	-0.1	1.0000 
	10	-4	-12	28284	5369	28578	0.19	-0.12	1.0000 
	-4	-10	13	5523	2803	6013	0.05	-3.8	1.0000 
	-10	-4	13	2928	1076	3195	0.08	-3.84	1.0000 
	10	-4	-13	6669	2251	7379	0.66	2.25	1.0000 
	-10	4	-14	35525	5744	33756	1.02	-0.54	1.0000 
	-10	-4	-14	28639	5057	29472	-0.56	-0.28	1.0000 
	10	-4	-14	36120	6294	34326	1.03	-0.54	1.0000 
	-10	-4	14	20067	3609	20888	-0.66	0.5	1.0000 
	-10	4	-15	1040	353	460	2.41	1.44	1.0000 
	10	-4	-15	7345	1934	5669	2.42	1.17	1.0000 
	-10	-4	15	5137	1075	3464	-2.86	-0.5	1.0000 
	-10	4	-17	2	209	196	2.94	-0.75	1.0000 
	4	-10	-17	2953	1362	4626	2.97	-0.65	1.0000 
	-10	4	-18	22547	6359	23753	-0.81	1.02	1.0000 
	-10	-4	-18	32817	10372	36069	-1.91	0.52	1.0000 
	10	-4	-18	27813	8045	29184	-0.83	1.01	1.0000 
	4	-10	-18	34667	9946	36186	-0.82	0.99	1.0000 
	-10	4	-19	50	195	109	1.27	-2.11	1.0000 
	-10	-4	-19	815	822	1699	-2.59	-1.63	1.0000 
	4	-10	-19	2330	1052	3171	1.27	-2.01	1.0000 
	10	-4	-19	1112	668	1692	1.26	-2.02	1.0000 
	-10	4	-20	2540	1411	1376	-2.94	0.24	1.0000 
	4	-10	-20	24267	6054	20268	-2.96	0.28	1.0000 
	10	-4	-20	18647	4324	15220	-2.91	0.34	1.0000 
	-10	-4	-21	1487	603	1409	-0.23	-0.02	1.0000 
	10	4	-21	1898	679	1820	-0.2	0.08	1.0000 
	10	-4	-21	1906	667	1905	0.02	0.73	1.0000 
	-4	-10	21	2171	807	2085	-0.2	-0.06	1.0000 
	4	-10	-21	2072	748	2075	0.01	0.75	1.0000 
	10	-4	-21	1413	509	1410	0.02	0.73	1.0000 
	-10	-5	0	84237	11279	83246	0.43	0.75	1.0000 
	-5	-10	0	110245	36824	109024	0.46	0.8	1.0000 
	-10	-5	-1	6369	3590	11146	-5.38	-2.36	1.0000 
	-10	-5	1	9218	5537	15589	-5.2	4.5	1.0000 
	10	-5	1	22440	4485	32745	6.42	-2.89	1.0000 
	-5	-10	-1	20785	7198	28651	-5.46	-1.25	1.0000 
	-10	-5	-2	104681	14189	104928	-0.3	-4.68	1.0000 
	-10	-5	2	97593	13208	97705	-0.35	4.76	1.0000 
	10	-5	-2	97589	13458	99721	0.75	-0.15	1.0000 
	-10	-5	-3	7218	2681	18727	4.45	-10.63	1.0000 
	-10	-5	3	788	2604	6842	3.94	11.51	1.0000 
	10	-5	-3	2886	3400	12244	-8.65	-9.19	1.0000 
	-10	-5	-4	45266	6793	49713	-2.21	1.09	1.0000 
	-5	-10	-4	72846	10735	78618	-2.27	1.1	1.0000 
	-10	-5	-5	2183	2323	8011	7.64	5.79	1.0000 
	10	-5	-6	13007	2842	13138	-0.17	-2.77	1.0000 
	-5	-10	6	14539	2386	13429	-1.02	-0.44	1.0000 
	-10	-5	6	13747	2855	12801	-0.91	-0.02	1.0000 
	-5	-10	-6	22973	4856	21760	-0.89	0.25	1.0000 
	5	-10	-6	15192	3192	15407	-0.14	-2.94	1.0000 
	10	-5	-7	1582	784	2119	0.86	2.1	1.0000 
	10	5	-7	329	447	1170	-2.25	4.55	1.0000 
	-5	-10	7	509	628	1563	-2.29	-4.48	1.0000 
	-10	-5	7	264	398	1007	-2.25	-4.55	1.0000 
	5	-10	-7	775	469	1135	0.89	1.99	1.0000 
	10	-5	-7	1608	670	2150	0.86	2.1	1.0000 
	-10	-5	-8	423	379	981	2.14	-1.95	1.0000 
	10	-5	-8	551	354	976	1.42	2.3	1.0000 
	-5	-10	8	574	533	1210	2.13	1.93	1.0000 
	-5	-10	-8	429	386	1002	2.18	-1.94	1.0000 
	-10	-5	8	249	260	692	2.16	1.94	1.0000 
	5	-10	-8	646	445	1121	1.44	2.38	1.0000 
	10	-5	-8	809	523	1330	1.42	2.3	1.0000 
	10	-5	-9	1871	532	1471	1.76	2.87	1.0000 
	-5	-10	9	2060	837	2582	0.63	-2.94	1.0000 
	-5	-10	-9	1378	674	1752	0.65	2.63	1.0000 
	5	-10	-9	3811	1098	3339	1.82	2.99	1.0000 
	10	-5	-9	3194	915	2733	1.76	2.87	1.0000 
	10	-5	-10	16658	3238	18731	-1.7	0.57	1.0000 
	-5	-10	10	23759	4269	24752	-0.65	-0.93	1.0000 
	-5	-10	-10	24672	4819	25774	-0.71	0.96	1.0000 
	10	-5	-10	22774	5527	25189	-1.7	0.57	1.0000 
	10	-5	-11	1177	1347	3198	4.11	3.21	1.0000 
	-5	-10	11	5111	3548	9401	-5.35	-1.97	1.0000 
	-5	-10	-11	602	814	2461	-5.41	1.49	1.0000 
	10	-5	-11	4791	3369	8413	4.11	3.21	1.0000 
	-5	-10	-12	44166	10618	43513	-0.41	-1.03	1.0000 
	5	-10	-12	53118	13353	55516	1.17	0.84	1.0000 
	10	-5	-12	53093	13337	55547	1.21	1.11	1.0000 
	-5	-10	-13	26	643	1402	-7.1	-1.04	1.0000 
	5	-10	-13	4890	3399	10100	6.71	-0.91	1.0000 
	10	-5	-13	3526	2352	8127	6.8	-0.36	1.0000 
	10	-5	-14	64407	15240	63683	0.33	0.25	1.0000 
	-5	-10	14	73586	16304	68024	2.32	0.02	1.0000 
	-10	-5	14	53781	11780	49103	2.29	-0.03	1.0000 
	-5	-10	-14	37603	8099	33777	2.25	0.06	1.0000 
	10	-5	-14	68738	16677	67990	0.33	0.25	1.0000 
	10	-5	-15	3278	1854	5783	-4.06	1.11	1.0000 
	-5	-10	15	4859	2682	7802	4.03	-1.02	1.0000 
	-10	-5	15	1917	1323	3917	4.01	-1.35	1.0000 
	10	-5	-15	6419	3349	9787	-4.06	1.11	1.0000 
	-10	-5	16	35761	9289	34787	-0.56	-0.24	1.0000 
	-5	-10	16	53656	13999	52490	-0.55	-0.24	1.0000 
	-10	-5	17	864	778	2455	4.43	-0.7	1.0000 
	5	-10	-17	4185	2347	8148	-5.58	-1.04	1.0000 
	10	5	-18	40083	11218	42934	-1.57	-0.26	1.0000 
	-10	-5	18	31536	8849	34070	-1.57	0.26	1.0000 
	5	-10	-18	62000	30746	62853	-0.36	0.29	1.0000 
	10	5	-19	1633	923	2414	-1.84	1.14	1.0000 
	5	-10	-19	6624	2679	7836	1.55	-0.61	1.0000 
	10	-5	-19	3310	1519	4194	1.57	-0.68	1.0000 
	-10	-6	0	27127	5373	31728	-2.99	-0.24	1.0000 
	-10	-6	0	28278	5611	32971	-2.99	-0.24	1.0000 
	-10	-6	-1	1774	1294	3332	-3.39	0.84	1.0000 
	10	6	-1	1802	1397	3451	-3.5	1.09	1.0000 
	-10	-6	-1	2678	1529	4539	-3.39	0.84	1.0000 
	-10	-6	1	6523	3093	9428	-3.5	-1.09	1.0000 
	-10	-6	-2	39575	7424	44022	2.4	-0.26	1.0000 
	10	6	-2	40331	7508	44542	2.21	-0.92	1.0000 
	-10	-6	-2	39546	7453	43991	2.4	-0.26	1.0000 
	-10	-6	2	27488	5264	30980	2.21	0.92	1.0000 
	-10	-6	-3	612	1365	2661	-2.53	5.51	1.0000 
	-6	-10	3	2852	1774	6038	-2.89	-4.63	1.0000 
	-10	-6	-3	1363	1822	4077	-2.53	5.51	1.0000 
	-10	-6	3	3887	2867	7668	-2.62	-5.02	1.0000 
	-6	-10	4	43487	6958	40784	1.7	-2.48	1.0000 
	-10	-6	4	26337	4102	24039	1.78	-2.13	1.0000 
	-6	-10	5	328	879	2929	-1.5	7.92	1.0000 
	10	-6	5	1198	1483	4556	-0.67	7.58	1.0000 
	-6	-10	6	13074	3898	12747	-0.3	-0.5	1.0000 
	10	6	-7	12	147	318	4.26	-1.44	1.0000 
	-6	-10	7	59	133	168	4.26	1.46	1.0000 
	10	-6	7	6	267	385	-3.79	-0.53	1.0000 
	10	6	-8	3	85	157	2.81	0.74	1.0000 
	-6	-10	8	17	173	284	2.82	-0.69	1.0000 
	-6	-10	-8	3	126	154	2.89	0.63	1.0000 
	6	-10	-8	22	251	315	2.04	-3.63	1.0000 
	10	-6	8	21	190	321	2.06	3.57	1.0000 
	10	-6	-8	114	162	62	1.99	-3.48	1.0000 
	10	6	-9	67	159	329	5.76	0.84	1.0000 
	-10	-6	9	176	113	170	5.76	-0.84	1.0000 
	-6	-10	-9	99	162	277	5.76	1.12	1.0000 
	6	-10	-9	8	297	434	-5.18	-0.16	1.0000 
	10	-6	9	37	219	300	-5.15	0.01	1.0000 
	10	-6	-9	3	373	605	-5.22	-0.1	1.0000 
	6	-10	-10	13666	3689	14005	-0.35	-0.93	1.0000 
	10	-6	10	12178	3228	12526	-0.37	0.85	1.0000 
	-6	-10	11	2566	1318	3665	2.14	0.99	1.0000 
	-6	-10	-11	969	517	1655	2.08	-1.06	1.0000 
	-10	-6	12	23544	5861	21669	-1.51	1.59	1.0000 
	-6	-10	12	33575	8386	31311	-1.53	1.56	1.0000 
	-6	-10	13	6857	2466	7739	-0.86	-2.21	1.0000 
	-10	-6	13	4692	1692	5428	-0.89	-2.23	1.0000 
	-6	-10	-13	2438	900	2937	-0.89	2.04	1.0000 
	6	-10	-13	5876	2216	7425	1.71	2.68	1.0000 
	-6	-10	14	40908	10497	39297	0.89	0.11	1.0000 
	-10	-6	14	30789	7920	29404	0.88	0.02	1.0000 
	-6	-10	-14	20238	5791	19174	0.84	0.06	1.0000 
	6	-10	-14	54520	14822	52139	1.37	2.36	1.0000 
	10	-6	-14	44683	11350	42494	1.39	2.39	1.0000 
	-6	-10	15	6304	2359	7690	1.71	-1.71	1.0000 
	-10	-6	15	3275	1577	4303	1.75	-1.77	1.0000 
	10	-6	-15	8802	2996	9940	-1.12	-1.78	1.0000 
	-10	-6	-16	30842	7554	28962	-1.29	-1	1.0000 
	-10	-6	16	28469	7267	26659	-1.29	1	1.0000 
	-6	-10	16	33598	8253	31622	-1.31	1.09	1.0000 
	-6	-10	-16	14789	3524	13495	-1.28	-0.92	1.0000 
	10	-6	-16	34236	8941	32948	-0.72	1.32	1.0000 
	-10	-7	0	186	89	93	-0.76	-0.73	1.0000 
	7	-10	0	79	232	-41	-1.87	-0.61	1.0000 
	-7	-10	1	167	203	386	5.32	-3.91	1.0000 
	-10	-7	-1	216	171	282	5.39	3.73	1.0000 
	-10	-7	1	306	147	180	5.34	-3.82	1.0000 
	7	-10	1	49	179	318	-5.4	0.68	1.0000 
	7	-10	-1	46	210	371	-5.45	1.33	1.0000 
	10	-7	-1	29	230	481	-5.4	1.68	1.0000 
	-7	-10	2	589	508	1454	3.12	-1.57	1.0000 
	-10	-7	-2	396	431	1155	3.22	1.46	1.0000 
	-10	-7	2	331	363	999	3.07	-1.77	1.0000 
	-7	-10	-2	813	604	1818	3.15	1.62	1.0000 
	7	-10	-2	658	450	1243	2.07	-0.49	1.0000 
	7	-10	2	652	370	1196	1.96	0.39	1.0000 
	10	-7	-2	261	322	653	2.03	-0.48	1.0000 
	-7	-10	3	108	308	526	-0.32	-2.78	1.0000 
	-10	-7	3	8	118	95	-0.37	-2.72	1.0000 
	7	-10	-3	18	138	176	1.93	0.53	1.0000 
	7	-10	3	35	213	219	1.94	-0.33	1.0000 
	10	-7	3	94	198	349	1.95	-0.43	1.0000 
	10	-7	-3	20	157	182	1.91	0.6	1.0000 
	-7	-10	4	2068	740	2150	1.27	4.33	1.0000 
	-10	-7	-4	1853	628	1866	1.44	-4.36	1.0000 
	-10	-7	4	1400	496	1400	1.2	4.31	1.0000 
	7	-10	4	1714	455	1352	1.29	2.28	1.0000 
	10	-7	4	2768	721	2339	1.28	2.27	1.0000 
	10	-7	-4	2356	611	1914	1.32	-2.13	1.0000 
	-7	-10	5	2	110	71	-1.8	-0.31	1.0000 
	-10	-7	5	33	130	196	-1.84	-0.49	1.0000 
	7	-10	5	33	107	94	1.06	-3.14	1.0000 
	10	-7	5	81	99	35	1.05	-3.09	1.0000 
	10	-7	-5	73	234	447	0.99	2.79	1.0000 
	-10	-7	6	379	193	421	-3.49	1.71	1.0000 
	-7	-10	6	492	278	576	-3.49	1.59	1.0000 
	-10	-7	-6	413	257	547	-3.66	-1.79	1.0000 
	7	-10	-6	236	324	586	-4.73	-2.22	1.0000 
	10	-7	6	215	258	409	-4.64	2.24	1.0000 
	10	-7	-6	251	293	643	-4.73	-2.26	1.0000 
	-10	-7	7	14	148	-11	0.78	0.25	1.0000 
	-7	-10	7	15	245	-13	0.78	0.38	1.0000 
	-7	-10	-7	52	142	113	0.78	-0.47	1.0000 
	7	-10	-7	95	250	-32	0.08	-2.16	1.0000 
	10	-7	7	99	162	-34	0.07	2.2	1.0000 
	10	-7	-7	24	174	157	0.09	-2.08	1.0000 
	-10	-7	-8	245	80	123	-1.03	0.65	1.0000 
	-10	-7	8	429	138	275	-0.99	-0.78	1.0000 
	-7	-10	8	624	227	439	-1	-0.85	1.0000 
	-10	-7	-8	417	152	255	-1.03	0.65	1.0000 
	-7	-10	-8	697	230	479	-1.04	0.52	1.0000 
	7	-10	-8	726	273	551	-1.28	1.62	1.0000 
	10	-7	8	559	222	398	-1.34	-1.72	1.0000 
	10	-7	-8	749	319	614	-1.22	1.84	1.0000 
	-10	-7	-9	8	54	28	0.17	-0.63	1.0000 
	-7	-10	9	16	149	40	0.18	0.57	1.0000 
	-7	-10	-9	97	117	150	0.21	-0.53	1.0000 
	7	-10	-9	216	153	235	-0.03	-0.46	1.0000 
	10	-7	9	140	117	154	-0.04	0.39	1.0000 
	10	-7	-9	30	140	34	-0.01	-0.46	1.0000 
	-10	-7	-10	1445	513	720	2.61	1.4	1.0000 
	-7	-10	10	4929	1315	3543	2.52	-1.08	1.0000 
	-7	-10	-10	3798	900	2563	2.65	1.4	1.0000 
	-10	-7	-10	3902	1004	2670	2.61	1.4	1.0000 
	7	-10	-10	4224	1218	3368	1.64	0.88	1.0000 
	10	-7	-10	3576	986	2793	1.64	0.91	1.0000 
	-10	-7	-11	11	63	-5	-0.68	0.3	1.0000 
	-7	-10	11	667	411	771	-0.53	-0.17	1.0000 
	-7	-10	-11	125	106	197	-0.66	0.34	1.0000 
	-10	-7	-12	1157	944	1128	-0.01	1.36	1.0000 
	-7	-10	12	6194	1924	6164	-0.02	-1.31	1.0000 
	-7	-10	-12	4663	1650	4644	-0.01	1.32	1.0000 
	10	-7	-12	7392	1866	6296	-1.53	2.31	1.0000 
	7	-10	-12	8790	2286	7620	-1.51	2.32	1.0000 
	8	-10	0	4034	1532	4190	0.28	0.19	1.0000 
	-10	-8	-1	127	201	375	1.79	-0.06	1.0000 
	8	-10	-1	220	261	493	-0.93	-1.92	1.0000 
	8	-10	1	279	264	517	-1.04	1.2	1.0000 
	10	-8	1	275	233	509	-1.03	1.2	1.0000 
	-8	-10	-2	1115	665	1747	-1.88	-0.67	1.0000 
	-8	-10	2	653	513	1142	-1.85	0.72	1.0000 
	-10	-8	2	536	445	986	-1.86	0.64	1.0000 
	8	-10	-2	748	504	1247	-1.59	1.17	1.0000 
	8	-10	2	551	431	983	-1.58	-1.15	1.0000 
	10	-8	2	892	532	1442	-1.64	-1.06	1.0000 
	10	-8	-2	1102	620	1682	-1.53	1.23	1.0000 
	-10	-8	3	933	395	866	0.47	1.77	1.0000 
	-8	-10	3	1207	555	1137	0.46	1.68	1.0000 
	10	-8	3	1446	466	1110	-1.48	2.24	1.0000 
	8	-10	-3	1115	358	800	-1.38	-1.89	1.0000 
	8	-10	3	782	303	507	-1.52	2.37	1.0000 
	10	-8	-3	1215	371	887	-1.42	-1.96	1.0000 
	-10	-8	4	57	75	63	-0.11	-0.55	1.0000 
	-8	-10	4	454	269	473	-0.12	-0.38	1.0000 
	10	-8	-4	193	134	188	0	0.23	1.0000 
	10	-8	4	196	168	196	0.04	0.1	1.0000 
	8	-10	4	240	144	237	0.02	-0.03	1.0000 
	-10	-8	5	466	440	997	2.14	-1.7	1.0000 
	-8	-10	5	621	657	1227	2.14	-1.74	1.0000 
	-8	-10	-5	599	636	1183	2.13	1.55	1.0000 
	10	-8	-5	688	618	1190	-1.84	0.42	1.0000 
	10	-8	5	472	399	911	-1.88	-0.22	1.0000 
	-11	0	0	115864	37203	110208	-1.86	0.1	1.0000 
	-11	0	-2	68367	8605	63050	2.48	2.46	1.0000 
	-11	0	2	76332	9778	70841	2.44	-2.56	1.0000 
	-11	0	-4	34940	5365	38831	2.05	-2.66	1.0000 
	-11	0	4	37278	5673	41236	1.98	2.99	1.0000 
	-11	0	-6	14834	4983	14583	0.23	-2.32	1.0000 
	11	0	-6	18209	2547	17890	0.26	-2.03	1.0000 
	11	0	-8	3167	745	2132	-2.41	1.41	1.0000 
	0	-11	8	2205	507	1363	-2.41	-1.59	1.0000 
	-11	0	-10	4633	2110	5726	1.73	1.11	1.0000 
	11	0	-10	4633	1843	5798	1.84	1.29	1.0000 
	0	-11	10	4265	1559	5322	1.74	-1.25	1.0000 
	0	-11	12	27259	4980	28099	-0.54	-0.34	1.0000 
	11	0	-14	47536	10875	45318	-1.32	-2.18	1.0000 
	0	-11	14	57391	13765	54992	-1.31	2.2	1.0000 
	0	-11	18	36191	9512	34326	-1.1	-0.01	1.0000 
	-11	0	-20	9728	3125	7492	2.64	-0.64	1.0000 
	0	-11	20	12399	2960	9873	2.62	0.77	1.0000 
	-11	-1	0	118958	39376	116650	-0.75	-0.13	1.0000 
	-11	1	0	101100	12970	95694	-1.92	0.24	1.0000 
	-11	1	-1	4799	4994	14404	-11.21	0.67	1.0000 
	-11	-1	1	4744	4229	12745	9.45	-2.46	1.0000 
	-11	1	1	9252	3630	21639	-11.27	-0.31	1.0000 
	-11	1	-2	68465	9707	70354	-0.8	-0.08	1.0000 
	-11	1	2	66708	9331	68540	-0.8	0.4	1.0000 
	-11	-1	-3	13507	2880	20058	-5.43	1.88	1.0000 
	-11	1	-3	3325	2242	6459	4.89	-2.84	1.0000 
	-11	1	3	6439	3214	10795	4.82	4.01	1.0000 
	1	-11	-3	18893	5387	25854	4.91	-2.93	1.0000 
	-11	-1	-4	31594	4131	29625	-1.25	-0.14	1.0000 
	-11	-1	4	37981	4959	35628	-1.36	-0.05	1.0000 
	-11	1	4	28784	3894	27995	-0.49	-0.79	1.0000 
	-1	-11	4	37149	4809	34946	-1.28	-0.22	1.0000 
	-11	-1	5	5729	2623	10815	6.28	-0.86	1.0000 
	1	-11	-5	20489	5758	28091	-5.29	-1.74	1.0000 
	-11	1	-6	11430	2852	11963	-0.52	0.59	1.0000 
	11	1	-6	12656	3391	13770	-1.04	0.69	1.0000 
	-11	-1	-7	8785	1955	7284	1.96	1.09	1.0000 
	-11	-1	-8	542	457	949	1.62	-0.91	1.0000 
	-1	-11	8	796	489	1286	1.62	1.04	1.0000 
	1	-11	-8	983	712	1805	2.45	-0.55	1.0000 
	-1	-11	9	6459	1997	7197	1	-1.44	1.0000 
	1	-11	-9	7509	2191	7625	-0.17	0.98	1.0000 
	-1	-11	10	7351	2501	9023	2.07	-0.55	1.0000 
	1	-11	-10	7756	2972	10413	3.11	0.25	1.0000 
	-11	-1	-11	6538	1734	6353	0.34	-1.46	1.0000 
	11	1	-11	3489	1100	3305	0.4	-1.42	1.0000 
	1	-11	11	1443	534	1287	-1.26	-4.41	1.0000 
	-1	-11	11	3416	998	3274	0.35	1.59	1.0000 
	1	-11	-11	3694	1088	3684	-1.23	4.19	1.0000 
	11	-1	-12	23830	3773	22007	1.37	0.51	1.0000 
	1	-11	12	22701	4129	20947	1.35	-0.59	1.0000 
	1	-11	13	109	485	1006	0.83	-4.75	1.0000 
	-1	-11	13	1674	925	2463	1.8	1.17	1.0000 
	-1	-11	14	51848	13699	54842	1.43	0.21	1.0000 
	1	-11	14	34522	9605	36758	1.33	-0.28	1.0000 
	-11	-1	-15	989	1429	2189	3.25	1.21	1.0000 
	-1	-11	15	1753	1431	3280	3.25	-1.24	1.0000 
	1	-11	15	531	547	1688	-3.4	2.57	1.0000 
	-11	1	-16	51334	13831	51816	-0.25	-0.35	1.0000 
	-1	-11	16	61394	24576	62478	-0.51	0.89	1.0000 
	1	-11	16	46863	13102	47364	-0.27	0.36	1.0000 
	11	-1	-16	37353	10415	37746	-0.24	-0.34	1.0000 
	-11	1	-17	385	660	800	0.5	-2.85	1.0000 
	-1	-11	17	1846	870	2760	-1.73	1.66	1.0000 
	1	-11	17	1167	672	1853	0.57	2.67	1.0000 
	11	-1	-17	2951	1366	4170	0.44	-3	1.0000 
	-11	-1	-18	30532	8285	30798	0.16	-0.08	1.0000 
	-11	1	-18	29230	7418	27567	-1.08	0.34	1.0000 
	-1	-11	18	31044	8722	31329	0.18	-0.09	1.0000 
	1	-11	18	27191	7104	25574	-1.09	-0.39	1.0000 
	11	-1	-18	21532	5680	20054	-1.12	0.45	1.0000 
	-11	-1	-19	242	523	672	-2.04	-3.69	1.0000 
	11	-1	-19	2474	930	2279	0.73	-0.99	1.0000 
	11	-1	-19	1011	378	878	0.73	-0.99	1.0000 
	-11	-1	-20	9997	3798	9561	0.48	-0.15	1.0000 
	11	-1	-20	17285	4880	16710	0.52	0.48	1.0000 
	-11	-2	0	47427	6155	44836	-1.33	0.42	1.0000 
	-11	-2	-1	4668	2638	9917	6.78	1.66	1.0000 
	-11	-2	1	3275	2651	7747	6.73	-1.39	1.0000 
	-11	-2	1	2450	1639	6445	6.73	-1.39	1.0000 
	-11	-2	-2	31952	4448	31976	-0.03	-1.55	1.0000 
	-11	-2	2	30424	4223	30398	0.01	2.11	1.0000 
	-11	2	2	25528	4007	28824	-2.23	1.59	1.0000 
	-11	-2	2	24561	3380	24528	0.01	2.11	1.0000 
	-11	-2	-3	8929	2063	8530	0.46	-0.52	1.0000 
	-11	-2	3	12849	3255	12265	0.57	1.08	1.0000 
	11	-2	-3	7442	1834	7575	-0.1	2.93	1.0000 
	-11	-2	3	8291	2425	7819	0.57	1.08	1.0000 
	-11	-2	-4	21516	3682	21747	0.17	1.76	1.0000 
	-11	-2	4	19209	2752	19422	0.17	-1.68	1.0000 
	11	-2	-4	20130	2896	20556	0.34	1.12	1.0000 
	-11	-2	4	13682	3383	13853	0.17	-1.68	1.0000 
	2	-11	-4	24042	4532	24567	0.38	0.95	1.0000 
	-11	-2	-5	17768	3159	18130	0.11	-2.38	1.0000 
	11	-2	-5	21331	3863	20658	0.55	-0.75	1.0000 
	11	2	-6	15524	2686	15372	0.21	1.41	1.0000 
	11	-2	-6	15248	3103	16531	-1.13	0.1	1.0000 
	11	2	-7	21335	4375	25574	-3.01	1.2	1.0000 
	11	-2	-7	25943	4849	26074	0.12	-1.44	1.0000 
	11	2	-8	7404	3038	8915	1.85	0.46	1.0000 
	11	-2	-8	8881	3260	10074	1.34	0.73	1.0000 
	-11	-2	-9	18548	3350	19244	0.52	-0.77	1.0000 
	11	2	-9	20085	3992	20770	0.5	-0.61	1.0000 
	11	-2	-9	23961	3714	20271	2.72	0.9	1.0000 
	2	-11	-9	34010	6051	29625	2.7	0.89	1.0000 
	-11	-2	-10	549	1480	1617	-3.68	-0.56	1.0000 
	11	-2	-10	2268	1043	3036	-1.61	0.84	1.0000 
	-2	-11	11	10523	2927	10430	0.16	-0.79	1.0000 
	2	-11	-11	11916	2908	11015	-0.91	-1.71	1.0000 
	-2	-11	12	1112	562	1304	-0.63	0.18	1.0000 
	2	-11	-12	1209	719	1576	-1.12	-0.65	1.0000 
	11	-2	-13	1110	293	664	1.98	0.6	1.0000 
	11	2	-13	1746	443	970	-3.47	2.62	1.0000 
	-2	-11	13	1848	471	1047	-3.48	-2.58	1.0000 
	2	-11	-13	1472	455	974	1.98	0.71	1.0000 
	-11	-2	-14	2684	1222	3267	1.21	0.99	1.0000 
	-11	2	-14	2003	1129	2791	1.75	-0.59	1.0000 
	11	-2	-14	3160	1368	4116	1.71	-0.65	1.0000 
	-2	-11	14	4287	1490	5001	1.18	-0.99	1.0000 
	2	-11	-14	4078	1555	5178	1.75	-0.56	1.0000 
	-11	2	-15	282	232	319	-0.22	0.89	1.0000 
	2	-11	-15	1286	468	1376	-0.22	0.84	1.0000 
	11	-2	-15	1007	348	1088	-0.22	0.9	1.0000 
	-11	-2	-16	6616	2459	6690	-0.09	0.17	1.0000 
	-11	2	-16	5105	2189	5364	-0.42	-0.9	1.0000 
	2	-11	-16	10155	3062	10557	-0.45	-0.69	1.0000 
	11	-2	-16	6858	2892	7190	-0.46	-0.59	1.0000 
	-11	2	-17	987	604	908	-0.36	-0.86	1.0000 
	11	-2	-17	972	376	904	-0.31	-0.77	1.0000 
	-11	-2	-18	2762	1368	3206	0.89	-0.17	1.0000 
	-11	2	-18	1291	1020	2024	2	-0.15	1.0000 
	11	-2	-18	3280	1699	4429	2.06	0.02	1.0000 
	11	-2	-18	2207	1118	3165	2.06	0.02	1.0000 
	-11	-2	-19	2084	814	1956	-0.29	0.86	1.0000 
	-11	2	-19	1642	794	1193	1.37	-0.65	1.0000 
	-2	-11	19	3630	1258	3453	-0.31	-0.89	1.0000 
	11	-2	-19	2045	564	1518	1.42	-0.52	1.0000 
	-11	-3	0	26	191	-22	-1.14	0	1.0000 
	-11	3	0	113	128	312	-1.6	0.06	1.0000 
	-3	-11	0	359	247	576	-1.1	0.2	1.0000 
	-11	-3	0	156	135	306	-1.14	0	1.0000 
	3	-11	0	245	276	522	-1.62	0.02	1.0000 
	-11	-3	-1	98	168	332	-1.65	0.9	1.0000 
	-11	-3	1	14	128	107	-1.47	-0.35	1.0000 
	-11	3	-1	43	163	137	-0.08	-1.81	1.0000 
	11	-3	-1	41	209	158	0.04	-2.16	1.0000 
	-3	-11	-1	4	198	42	-1.64	0.81	1.0000 
	-11	-3	1	2	78	32	-1.47	-0.35	1.0000 
	3	-11	-1	51	130	164	0	-1.95	1.0000 
	3	-11	1	87	145	-18	-0.03	2.06	1.0000 
	-11	-3	-2	2872	1266	3131	0.54	0.88	1.0000 
	11	-3	-2	2982	1332	3970	1.58	3.31	1.0000 
	-3	-11	-2	3644	1103	3917	0.5	1.1	1.0000 
	-3	-11	2	4373	1599	4677	0.51	-0.84	1.0000 
	3	-11	-2	2698	1089	3654	1.57	3.55	1.0000 
	3	-11	2	1951	936	2707	1.58	-3.15	1.0000 
	-11	-3	-3	2699	913	2861	-0.33	0.17	1.0000 
	11	-3	-3	3376	888	2706	-1.5	1.31	1.0000 
	-3	-11	-3	2567	827	2706	-0.26	0.37	1.0000 
	3	-11	-3	3746	902	3018	-1.53	1.22	1.0000 
	-11	-3	-4	2620	882	2470	0.35	0.22	1.0000 
	-11	-3	4	3392	1213	3247	0.28	0.04	1.0000 
	11	-3	-4	4044	1211	3730	0.64	0.75	1.0000 
	3	-11	-4	3256	890	2981	0.64	0.83	1.0000 
	-11	-3	-5	7966	2070	7593	-0.62	-1.29	1.0000 
	11	-3	-5	7443	1728	6356	1.42	0.85	1.0000 
	-3	-11	5	10314	2990	9895	-0.6	1.15	1.0000 
	3	-11	-5	9965	2509	8705	1.41	1.03	1.0000 
	-11	-3	-6	633	522	995	1.28	1.02	1.0000 
	-11	-3	6	989	682	1479	1.22	-1.45	1.0000 
	-11	3	-7	6949	2392	6456	-0.66	0.12	1.0000 
	-11	-3	7	11351	2301	7455	4.47	-0.23	1.0000 
	-11	3	-8	675	1358	967	0.59	-2.55	1.0000 
	-11	-3	8	577	356	855	0.28	-3.56	1.0000 
	-11	3	-9	3995	2131	5051	-1.8	-1.01	1.0000 
	11	3	-9	8357	2993	8537	0.21	0.14	1.0000 
	-3	-11	9	10412	2932	10599	0.18	-0.31	1.0000 
	3	-11	-9	9760	3127	11409	-1.82	-1.08	1.0000 
	-11	3	-10	1354	803	1600	-0.64	0.98	1.0000 
	11	3	-10	3184	1130	3500	-0.61	-0.3	1.0000 
	-3	-11	10	4027	1377	4392	-0.63	0.35	1.0000 
	3	-11	-10	2921	1050	3265	-0.58	1.17	1.0000 
	3	-11	-11	1178	723	1608	1.02	-1.35	1.0000 
	-11	3	-12	3274	1079	2508	-1.6	-0.33	1.0000 
	3	-11	-12	6497	1609	5429	-1.57	-0.42	1.0000 
	11	-3	-12	4657	1141	3746	-1.59	-0.41	1.0000 
	-11	3	-13	366	178	316	-0.39	-2.77	1.0000 
	-11	-3	-13	473	1088	1037	0.36	2.98	1.0000 
	3	-11	-13	757	376	764	-0.44	-2.85	1.0000 
	-11	3	-14	2101	1055	2198	-0.22	0.24	1.0000 
	3	-11	-14	5834	1770	5969	-0.18	0.19	1.0000 
	-11	3	-15	2666	811	1664	2.4	0.16	1.0000 
	3	-11	-15	6107	1362	4544	2.38	0.08	1.0000 
	-11	3	-16	886	716	1261	1.28	0.14	1.0000 
	-11	-3	-16	2366	956	2590	0.52	0.58	1.0000 
	-3	-11	16	3230	1058	3476	0.49	-0.65	1.0000 
	3	-11	-16	3316	1181	4004	1.27	0.1	1.0000 
	11	-3	-16	2517	921	3138	1.3	0.03	1.0000 
	-11	3	-17	1217	864	1204	-0.01	1.36	1.0000 
	-11	-3	-17	2873	1079	2590	0.59	0.52	1.0000 
	-3	-11	17	4693	1535	4335	0.59	-0.54	1.0000 
	3	-11	-17	4494	1593	4514	0	1.34	1.0000 
	11	-3	-17	3388	1192	3380	-0.03	1.3	1.0000 
	-11	3	-18	1741	1133	1572	0.45	-0.2	1.0000 
	-11	-3	-18	4051	1564	3617	0.78	0.1	1.0000 
	-3	-11	18	5955	1896	5406	0.81	-0.04	1.0000 
	3	-11	-18	6785	1887	6486	0.4	-0.1	1.0000 
	11	-3	-18	4147	1358	3930	0.37	-0.17	1.0000 
	-11	-4	0	16184	2716	15716	0.39	-0.35	1.0000 
	11	-4	-1	4084	1925	6227	2.08	-3.41	1.0000 
	-11	-4	-1	2890	1568	3925	-1.74	-1.26	1.0000 
	-11	-4	1	3034	1622	4636	-1.37	3.21	1.0000 
	11	-4	-2	17607	3367	19703	1.58	-1.58	1.0000 
	-11	-4	2	22127	3841	22519	0.17	1.5	1.0000 
	4	-11	-2	37986	8318	41058	1.57	-1.74	1.0000 
	11	-4	-3	1377	2334	8666	-0.02	-12.4	1.0000 
	-11	-4	3	1333	1011	3193	-4.17	1.57	1.0000 
	4	-11	-3	1	1036	3117	0.01	-12.34	1.0000 
	-11	4	-4	15378	3371	13841	1.47	0.84	1.0000 
	11	-4	-4	19008	4191	17333	1.46	1.05	1.0000 
	11	4	-5	3082	1312	4211	-0.39	5.05	1.0000 
	11	-4	-5	3334	929	3081	0.95	-2.06	1.0000 
	-4	-11	-5	445	247	460	-0.47	5.07	1.0000 
	-4	-11	-6	8462	1856	6034	-3.2	1.65	1.0000 
	-11	-4	6	7965	1761	5574	-3.22	-1.14	1.0000 
	-4	-11	7	6986	2160	6983	-0.02	0.43	1.0000 
	-11	-4	7	3825	1212	3825	-0.02	0.38	1.0000 
	11	4	-8	2	156	303	-2.37	-3.08	1.0000 
	11	-4	-8	216	484	1106	0.28	4.15	1.0000 
	-11	-4	8	4	130	257	-2.37	3.08	1.0000 
	11	-4	-9	3773	1358	4342	-1	-0.11	1.0000 
	11	4	-9	5689	1698	5037	-1.05	0.91	1.0000 
	-11	-4	9	4205	1131	3645	-1.05	-0.91	1.0000 
	4	-11	-9	5996	2114	6734	-1.03	-0.14	1.0000 
	11	-4	-9	4314	1535	4922	-1	-0.11	1.0000 
	-11	-4	-10	6474	1739	4328	3.23	-0.41	1.0000 
	-11	4	-10	3829	1144	2457	2.72	-1.85	1.0000 
	11	4	-10	8998	2032	6408	3.26	-0.45	1.0000 
	-11	-4	10	5792	1137	3757	3.26	0.45	1.0000 
	4	-11	-10	8614	1933	6559	2.67	-1.9	1.0000 
	11	-4	-10	9119	2392	7047	2.61	-1.95	1.0000 
	11	4	-11	1920	1070	3420	-3.21	-1.75	1.0000 
	-11	-4	11	517	440	1363	-3.21	1.75	1.0000 
	11	-4	-11	2857	1325	3786	1.45	2.4	1.0000 
	-11	4	-12	11049	3392	12066	1.08	0.6	1.0000 
	-4	-11	12	24761	7215	23782	-0.75	0.72	1.0000 
	-4	-11	13	735	1526	3841	2.94	7.87	1.0000 
	-11	4	-14	22136	6882	25756	-2.62	-0.49	1.0000 
	-11	-4	-14	24092	7266	26721	-1.8	0.47	1.0000 
	11	-4	-14	23943	7571	27619	-2.56	-0.39	1.0000 
	-4	-11	14	33056	9680	36157	-1.82	-0.4	1.0000 
	-4	-11	15	4348	3415	5506	1.74	1.31	1.0000 
	-11	4	-16	19677	4961	19003	-0.56	-0.33	1.0000 
	-11	-5	0	45006	10123	42206	1.52	0.38	1.0000 
	-11	-5	-1	3134	2426	6464	-1.8	-6.91	1.0000 
	11	5	-1	5851	3275	8415	-2.8	-2.64	1.0000 
	5	-11	-1	30125	10023	41568	3.49	6.7	1.0000 
	-11	-5	2	37683	9438	39333	0.97	-0.73	1.0000 
	-11	-5	3	4106	2109	6329	3.17	-1.8	1.0000 
	5	-11	-3	1406	2930	8326	4.35	13.61	1.0000 
	-11	-5	-4	29275	7329	29658	-0.28	-0.92	1.0000 
	11	-5	-4	24828	6274	25589	-0.56	-0.6	1.0000 
	-11	-5	4	20803	5054	20972	-0.17	0.82	1.0000 
	-11	-5	-5	72	482	771	-4.01	-2.09	1.0000 
	11	5	-5	726	666	2179	-3.94	-2.19	1.0000 
	-11	-5	5	977	965	2604	-3.94	2.19	1.0000 
	11	5	-6	6508	2089	6427	-0.14	-0.34	1.0000 
	-5	-11	-6	5162	1575	5030	-0.25	-0.48	1.0000 
	-11	-5	6	4737	1495	4668	-0.14	0.34	1.0000 
	11	5	-7	443	241	470	-0.13	-0.33	1.0000 
	-11	-5	7	212	113	230	-0.13	0.33	1.0000 
	-5	-11	-7	41	70	51	-0.18	-0.19	1.0000 
	11	-5	-8	2387	459	1537	-2.53	-1.92	1.0000 
	-11	-5	8	1982	360	1193	-2.33	-1.38	1.0000 
	-5	-11	-8	2277	436	1464	-2.32	1.78	1.0000 
	5	-11	-8	3397	738	2377	-2.57	-1.95	1.0000 
	11	-5	-8	2940	673	2000	-2.53	-1.92	1.0000 
	11	-5	-9	1746	407	1392	1.88	-3.52	1.0000 
	-5	-11	9	3852	1149	3642	-0.42	-0.58	1.0000 
	-5	-11	-9	1064	303	946	-0.44	0.62	1.0000 
	5	-11	-9	776	246	438	1.88	-3.6	1.0000 
	11	-5	-9	2398	629	2037	1.88	-3.52	1.0000 
	11	-5	-10	15392	4816	16556	-0.9	1.76	1.0000 
	-5	-11	10	23896	6749	24254	-0.27	0.53	1.0000 
	11	-5	-10	20154	6515	21491	-0.9	1.76	1.0000 
	11	-5	-11	2475	1235	3238	-1.61	-5.25	1.0000 
	-5	-11	11	4250	1705	5031	-1.21	-0.88	1.0000 
	-11	-5	11	2096	1071	2654	-1.24	-0.7	1.0000 
	5	-11	-11	4757	2105	5968	-1.6	-5.17	1.0000 
	11	-5	-11	3271	1483	4231	-1.61	-5.25	1.0000 
	-5	-11	12	50397	13695	52568	1.03	0.57	1.0000 
	-11	-5	12	28967	8182	30555	0.98	0.65	1.0000 
	11	-5	12	34810	9635	35953	0.62	0.93	1.0000 
	11	-5	-12	41376	11094	42584	0.59	-1.02	1.0000 
	-5	-11	13	5039	3304	9460	4.53	-3.78	1.0000 
	-11	-5	13	251	665	1694	4.58	-3.49	1.0000 
	11	-5	-13	3997	2659	7658	-5.23	1.32	1.0000 
	-11	-6	0	19466	4345	16175	2.75	0.07	1.0000 
	11	6	-1	4301	3028	7254	-1.59	6.66	1.0000 
	-11	-6	-1	7307	2965	10923	-2.03	5.79	1.0000 
	11	6	2	27836	7587	28423	0.44	-1.43	1.0000 
	-11	-6	-2	19043	5236	19522	0.44	1.43	1.0000 
	11	6	-4	14585	4234	15816	-1.14	-0.77	1.0000 
	-11	-6	-5	7874	2329	8729	-0.94	1.71	1.0000 
	-11	-6	6	2912	1684	4643	3.03	1.21	1.0000 
	-6	-11	6	5463	2305	7736	3.02	1.01	1.0000 
	-11	-6	-6	3589	2841	5527	3.11	-1.07	1.0000 
	-11	-6	7	8331	2298	8081	-0.3	-0.19	1.0000 
	-11	-6	-7	9041	3002	8773	-0.33	-0.48	1.0000 
	11	-6	-7	11952	3043	10624	1.45	-1.25	1.0000 
	-6	-11	-8	1157	591	1604	0.96	2.42	1.0000 
	-11	-6	8	1829	937	2430	0.94	-2.6	1.0000 
	11	6	-9	6367	1698	6089	0.38	-0.39	1.0000 
	-6	-11	9	16028	4880	15559	0.4	0.54	1.0000 
	-6	-11	-9	5791	2861	5480	0.45	-0.48	1.0000 
	-11	-6	9	8258	2410	7941	0.38	0.39	1.0000 
	6	-11	-9	12240	3300	11604	-0.73	1.33	1.0000 
	12	0	-4	8355	1586	5625	-3.64	-0.07	1.0000 
	-12	0	-6	5447	1488	3678	2.98	-1.52	1.0000 
	12	0	-6	7771	1986	5645	3.04	-1.9	1.0000 
	-12	0	-8	2340	564	1502	-2.17	-0.73	1.0000 
	12	0	-8	2982	658	2022	-2.19	-0.78	1.0000 
	-12	0	-10	161	205	-17	2.15	1.8	1.0000 
	12	0	-10	59	76	22	2.1	1.73	1.0000 
	12	0	-12	1632	605	1626	0.07	-2.02	1.0000 
	0	-12	12	636	318	594	0.1	2.01	1.0000 
	12	0	-14	6387	1869	6199	-0.26	0.02	1.0000 
	0	-12	14	2890	1240	2772	-0.24	-0.07	1.0000 
	-12	-1	0	22120	6540	26894	3.39	0.37	1.0000 
	-12	1	0	18886	5324	22031	2.44	-0.13	1.0000 
	-12	-1	-1	909	846	2176	2.04	-3.41	1.0000 
	-12	1	-1	2714	2121	4857	-3.81	1.16	1.0000 
	-12	-1	1	2783	1654	4727	2.06	3.18	1.0000 
	-12	-1	-2	15655	3852	15759	-0.09	-0.03	1.0000 
	-12	1	-2	13693	2970	12131	1.65	1.59	1.0000 
	-12	-1	2	12371	3008	12309	0.05	0.26	1.0000 
	-12	-1	-3	2548	1267	3653	-2.18	-1.92	1.0000 
	12	1	-3	5116	2348	6650	-2.15	-1.91	1.0000 
	-12	-1	-3	857	719	1505	-2.18	-1.92	1.0000 
	12	1	-4	9017	3170	10042	1.17	1.17	1.0000 
	12	-1	-4	8491	2471	8409	-0.09	0.1	1.0000 
	-12	1	-5	6278	1939	6905	-0.89	-0.51	1.0000 
	12	1	-5	12913	2807	10085	-2.99	0.72	1.0000 
	12	-1	-5	10234	2948	10941	-0.8	-0.74	1.0000 
	-12	1	-6	6187	1476	5166	1.51	-0.75	1.0000 
	12	-1	-6	7585	2199	6396	1.6	-0.94	1.0000 
	-1	-12	8	2044	637	2013	-0.37	-1.63	1.0000 
	-1	-12	10	449	643	1498	2.75	2.78	1.0000 
	12	1	-12	3149	1306	3459	-0.6	-0.02	1.0000 
	-1	-12	12	1844	789	2081	-0.61	0.17	1.0000 
	12	-1	-13	6214	2310	7267	-1.41	-1.65	1.0000 
	-1	-12	13	5647	2026	5745	0.14	-0.01	1.0000 
	12	-1	-14	6885	1794	6026	-1.16	0.91	1.0000 
	-1	-12	14	4969	1590	4113	-1.39	-0.38	1.0000 
	12	-1	-14	4844	1443	4125	-1.16	0.91	1.0000 
	-12	-2	0	20793	4259	17565	-2.58	-0.02	1.0000 
	-12	-2	0	18557	3841	15515	-2.58	-0.02	1.0000 
	-12	-2	-1	3460	1903	4718	2.19	0.42	1.0000 
	-12	-2	1	4972	2261	6451	2.17	-0.72	1.0000 
	12	-2	-1	7753	2351	8300	-0.62	-0.59	1.0000 
	-12	-2	-1	962	790	1669	2.19	0.42	1.0000 
	-12	-2	-2	13271	2653	10806	2.49	-0.32	1.0000 
	12	-2	-2	12822	2336	9521	3.67	2.52	1.0000 
	12	-2	-3	13475	4348	16160	2.48	1.75	1.0000 
	12	-2	-4	12434	4692	15059	2.36	2.56	1.0000 
	-12	-2	-5	35756	9157	34250	-0.9	-0.11	1.0000 
	12	2	-5	37699	9908	36168	-0.91	-0.41	1.0000 
	12	-2	-5	42757	9940	37250	3.06	-0.21	1.0000 
	-2	-12	5	33180	8481	31737	-0.92	0.46	1.0000 
	12	2	-6	16814	5657	19389	-2.11	-0.7	1.0000 
	12	-2	-6	10411	3794	12493	-1.65	3.7	1.0000 
	12	2	-7	55183	23251	59909	-2.16	0.47	1.0000 
	12	-2	-7	58661	15105	56723	-0.88	-0.35	1.0000 
	12	2	-8	20157	6043	21202	0.6	-2.03	1.0000 
	12	-2	-8	19870	6600	24606	3.35	-2.07	1.0000 
	12	-2	-9	58320	23675	61011	-1.26	-1.19	1.0000 
	12	-2	-10	11325	4922	17667	-4.82	-5.04	1.0000 
	-12	-3	0	570	358	961	1.58	-0.28	1.0000 
	12	-3	0	1098	425	1309	0.68	-0.28	1.0000 
	-12	-3	0	305	283	604	1.58	-0.28	1.0000 
	-12	-3	-1	1020	375	716	-1.48	1.49	1.0000 
	-3	-12	1	848	246	530	-1.34	-0.5	1.0000 
	-12	-3	-1	763	222	495	-1.48	1.49	1.0000 
	-12	-3	1	888	262	559	-1.38	-0.73	1.0000 
	-12	-3	-2	676	669	1803	-0.89	-3.54	1.0000 
	12	3	-2	51	204	453	-0.94	-3	1.0000 
	12	-3	-2	42	327	1010	-1.82	-5.31	1.0000 
	-12	-3	2	1	129	186	-0.94	3	1.0000 
	-12	-3	-3	7303	2712	6887	0.52	-0.4	1.0000 
	12	3	-3	8418	2299	8016	0.45	-1.04	1.0000 
	12	-3	-3	6942	1595	5730	-1.63	-1.74	1.0000 
	-3	-12	3	11729	3293	11160	0.55	0.94	1.0000 
	-12	-3	3	6138	1721	5792	0.45	1.04	1.0000 
	12	-3	4	1322	2162	3960	-4.97	3.41	1.0000 
	12	3	-4	1426	1409	4569	-6.52	-1.2	1.0000 
	12	-3	-4	1884	1749	4974	-5.06	-3.49	1.0000 
	-12	-3	4	15	383	1108	-6.52	1.2	1.0000 
	3	-12	-4	666	1132	2720	-5.01	-3.3	1.0000 
	12	3	-5	22619	6999	26170	2.54	0.26	1.0000 
	12	3	-6	4271	2471	8425	-2.61	-5.35	1.0000 
	3	-12	-6	2480	1993	6196	-6.21	-1.55	1.0000 
	-12	-3	-7	37895	10756	40292	-1.36	-0.4	1.0000 
	12	3	-7	41600	11803	44288	-1.46	-0.46	1.0000 
	-12	-3	-8	12206	4704	17840	2.07	-6.14	1.0000 
	12	3	-8	7302	3438	11494	2.3	-5.67	1.0000 
	12	3	-9	46040	13540	52106	3.08	1.07	1.0000 
	-3	-12	10	6885	2921	9687	-1.84	-5	1.0000 
	3	-12	-10	7253	3223	10373	-2.76	3.95	1.0000 
	12	-3	-10	9970	4310	13655	-2.74	4.07	1.0000 
	12	-3	-11	32461	8527	32703	0.17	0.52	1.0000 
	-4	-12	0	275	711	1928	-6.09	0.03	1.0000 
	-4	-12	-1	38	143	248	2.14	0.17	1.0000 
	4	-12	-1	250	299	604	-1.94	-0.06	1.0000 
	-12	-4	2	3690	1271	3383	-0.6	0.35	1.0000 
	4	-12	-2	4540	1497	4059	-0.98	2.93	1.0000 
	-12	-4	-3	5147	2030	5987	-1.16	1.1	1.0000 
	-12	-4	3	4266	1835	4945	-1.02	-1.13	1.0000 
	-12	-4	-4	5014	1433	4217	1.63	2	1.0000 
	-12	-4	4	5187	1522	4257	1.7	-1.43	1.0000 
	12	-4	-5	14857	4505	16785	-1.71	-0.29	1.0000 
	-12	-4	5	15825	3565	12736	-2.83	1.55	1.0000 
	12	-4	-5	14630	4357	16544	-1.71	-0.29	1.0000 
	12	-4	-6	2892	1847	6159	5.46	-0.34	1.0000 
	-12	-4	6	1093	976	2685	4.16	-0.34	1.0000 
	4	-12	-6	2023	1831	4796	5.36	-0.33	1.0000 
	12	-4	-6	4164	2309	7961	5.46	-0.34	1.0000 
	-12	-4	-7	25409	6217	23808	1.1	-1.01	1.0000 
	12	-4	-7	30752	6849	26306	-2.96	0.72	1.0000 
	-12	-4	7	14673	3707	13486	1.06	1.29	1.0000 
	12	-4	-7	29192	6503	24864	-2.96	0.72	1.0000 
	-12	-4	-8	344	2011	1858	5.39	0.74	1.0000 
	12	-4	-8	243	1101	3297	1.44	-9.37	1.0000 
	-4	-12	8	3710	2874	7246	5.29	-0.94	1.0000 
	12	-4	-8	3319	3976	9992	1.44	-9.37	1.0000 


;
_shelx_hkl_checksum              25437

# SQUEEZE RESULTS (APPEND TO CIF)
loop_
_platon_squeeze_void_nr
_platon_squeeze_void_average_x
_platon_squeeze_void_average_y
_platon_squeeze_void_average_z
_platon_squeeze_void_volume
_platon_squeeze_void_count_electrons
1 0.081 0.453 -0.004 3177.2 82.2
_platon_squeeze_details          
;
;
