####################################################################### 
# 
# This file contains crystal structure data downloaded from the 
# Cambridge Structural Database (CSD) hosted by the Cambridge 
# Crystallographic Data Centre (CCDC).
# 
# Full information about CCDC data access policies and citation 
# guidelines are available at http://www.ccdc.cam.ac.uk/access/V1 
# 
# Audit and citation data items may have been added by the CCDC. 
# Please retain this information to preserve the provenance of 
# this file and to allow appropriate attribution of the data. 
# 
#######################################################################

data_lp20-fc80_a
_audit_block_doi                 10.5517/ccdc.csd.cc1jr3jx
_database_code_depnum_ccdc_archive 'CCDC 1422389'
loop_
_citation_id
_citation_doi
_citation_year
1 10.1021/acs.inorgchem.5b02257 2016
_audit_update_record             
;
2015-09-04 deposited with the CCDC.	2021-12-14 downloaded from the CCDC.
;
# start Validation Reply Form
_vrf_PLAT213_lp20-fc80_a         
;
PROBLEM: Atom C1              has ADP max/min Ratio .....        6.1 prolat
RESPONSE: In this metal-organic framework structure, the organic moiety is free to rock about its axis, causing elongated ellipsoids. This is a realistic representation of the structure.
;
_vrf_PLAT213_lp20-fc80_a_2       
;
PROBLEM: Atom C4              has ADP max/min Ratio .....        5.4 prolat
RESPONSE: In this metal-organic framework structure, the organic moiety is free to rock about its axis, causing elongated ellipsoids. This is a realistic representation of the structure.
;
_vrf_PLAT213_lp20-fc80_a_3       
;
PROBLEM: Atom C12             has ADP max/min Ratio .....        5.4 prolat
RESPONSE: In this metal-organic framework structure, the organic moiety is free to rock about its axis, causing elongated ellipsoids. This is a realistic representation of the structure.
;
_vrf_PLAT213_lp20-fc80_a_4       
;
PROBLEM: Atom C19             has ADP max/min Ratio .....        6.1 prolat
RESPONSE: In this metal-organic framework structure, the organic moiety is free to rock about its axis, causing elongated ellipsoids. This is a realistic representation of the structure.
;
_vrf_PLAT250_lp20-fc80_a         
;
PROBLEM: Large U3/U1 Ratio for Average U(i,j) Tensor ....       18.7 Note
RESPONSE: In this metal-organic framework structure, the organic moiety is free to rock about its axis, causing elongated ellipsoids. The motion of the C atoms will be related to eachother. This is a realistic representation of the structure.
;
_vrf_PLAT601_lp20-fc80_a         
;
PROBLEM: Structure Contains Solvent Accessible VOIDS of .       1121 Ang3
RESPONSE: This is a porous metal-organic framework.
;
_vrf_PLAT049_lp20-fc80_a         
;
PROBLEM: Calculated Density less than 1.0 gcm-3 .........     0.8510 Check
RESPONSE: This is a porous metal-organic framework.
;
_vrf_PLAT934_lp20-fc80_a         
;
PROBLEM: Number of (Iobs-Icalc)/SigmaW &gt; 10 Outliers ....          2 Check
RESPONSE: There are some outliers at low angles due to the inability to accurately model pore occupying species.
;

# Added during the CSD deposition process: Friday 4th of September 2015 10:54:28 AM
# end Validation Reply Form

_audit_creation_date             2015-08-07
_audit_creation_method           
;
Olex2 1.2
(compiled 2015.01.26 svn.r3150 for OlexSys, GUI svn.r4998)
;
_chemical_name_common            UiO-67-BN
_chemical_name_systematic        ?
_chemical_formula_moiety         '0.25(C463.3 O122.96 Zr24), 2.67(O1)'
_chemical_formula_sum            'C115.83 O33.41 Zr6'
_chemical_formula_weight         2472.89
_chemical_melting_point          ?
loop_
_atom_type_symbol
_atom_type_description
_atom_type_scat_dispersion_real
_atom_type_scat_dispersion_imag
_atom_type_scat_source
C C 0.0040 0.0020 'International Tables Vol C Tables 4.2.6.8 and 6.1.1.4'
O O 0.0130 0.0070 'International Tables Vol C Tables 4.2.6.8 and 6.1.1.4'
Zr Zr -2.0870 0.6420 'International Tables Vol C Tables 4.2.6.8 and 6.1.1.4'

_shelx_space_group_comment       
;
The symmetry employed for this shelxl refinement is uniquely defined
by the following loop, which should always be used as a source of
symmetry information in preference to the above space-group names.
They are only intended as comments.
;
_space_group_crystal_system      cubic
_space_group_IT_number           225
_space_group_name_H-M_alt        'F m -3 m'
_space_group_name_Hall           '-F 4 2 3'
loop_
_space_group_symop_operation_xyz
'x, y, z'
'-x, -y, z'
'-x, y, -z'
'x, -y, -z'
'z, x, y'
'z, -x, -y'
'-z, -x, y'
'-z, x, -y'
'y, z, x'
'-y, z, -x'
'y, -z, -x'
'-y, -z, x'
'y, x, -z'
'-y, -x, -z'
'y, -x, z'
'-y, x, z'
'x, z, -y'
'-x, z, y'
'-x, -z, -y'
'x, -z, y'
'z, y, -x'
'z, -y, x'
'-z, y, x'
'-z, -y, -x'
'x, y+1/2, z+1/2'
'-x, -y+1/2, z+1/2'
'-x, y+1/2, -z+1/2'
'x, -y+1/2, -z+1/2'
'z, x+1/2, y+1/2'
'z, -x+1/2, -y+1/2'
'-z, -x+1/2, y+1/2'
'-z, x+1/2, -y+1/2'
'y, z+1/2, x+1/2'
'-y, z+1/2, -x+1/2'
'y, -z+1/2, -x+1/2'
'-y, -z+1/2, x+1/2'
'y, x+1/2, -z+1/2'
'-y, -x+1/2, -z+1/2'
'y, -x+1/2, z+1/2'
'-y, x+1/2, z+1/2'
'x, z+1/2, -y+1/2'
'-x, z+1/2, y+1/2'
'-x, -z+1/2, -y+1/2'
'x, -z+1/2, y+1/2'
'z, y+1/2, -x+1/2'
'z, -y+1/2, x+1/2'
'-z, y+1/2, x+1/2'
'-z, -y+1/2, -x+1/2'
'x+1/2, y, z+1/2'
'-x+1/2, -y, z+1/2'
'-x+1/2, y, -z+1/2'
'x+1/2, -y, -z+1/2'
'z+1/2, x, y+1/2'
'z+1/2, -x, -y+1/2'
'-z+1/2, -x, y+1/2'
'-z+1/2, x, -y+1/2'
'y+1/2, z, x+1/2'
'-y+1/2, z, -x+1/2'
'y+1/2, -z, -x+1/2'
'-y+1/2, -z, x+1/2'
'y+1/2, x, -z+1/2'
'-y+1/2, -x, -z+1/2'
'y+1/2, -x, z+1/2'
'-y+1/2, x, z+1/2'
'x+1/2, z, -y+1/2'
'-x+1/2, z, y+1/2'
'-x+1/2, -z, -y+1/2'
'x+1/2, -z, y+1/2'
'z+1/2, y, -x+1/2'
'z+1/2, -y, x+1/2'
'-z+1/2, y, x+1/2'
'-z+1/2, -y, -x+1/2'
'x+1/2, y+1/2, z'
'-x+1/2, -y+1/2, z'
'-x+1/2, y+1/2, -z'
'x+1/2, -y+1/2, -z'
'z+1/2, x+1/2, y'
'z+1/2, -x+1/2, -y'
'-z+1/2, -x+1/2, y'
'-z+1/2, x+1/2, -y'
'y+1/2, z+1/2, x'
'-y+1/2, z+1/2, -x'
'y+1/2, -z+1/2, -x'
'-y+1/2, -z+1/2, x'
'y+1/2, x+1/2, -z'
'-y+1/2, -x+1/2, -z'
'y+1/2, -x+1/2, z'
'-y+1/2, x+1/2, z'
'x+1/2, z+1/2, -y'
'-x+1/2, z+1/2, y'
'-x+1/2, -z+1/2, -y'
'x+1/2, -z+1/2, y'
'z+1/2, y+1/2, -x'
'z+1/2, -y+1/2, x'
'-z+1/2, y+1/2, x'
'-z+1/2, -y+1/2, -x'
'-x, -y, -z'
'x, y, -z'
'x, -y, z'
'-x, y, z'
'-z, -x, -y'
'-z, x, y'
'z, x, -y'
'z, -x, y'
'-y, -z, -x'
'y, -z, x'
'-y, z, x'
'y, z, -x'
'-y, -x, z'
'y, x, z'
'-y, x, -z'
'y, -x, -z'
'-x, -z, y'
'x, -z, -y'
'x, z, y'
'-x, z, -y'
'-z, -y, x'
'-z, y, -x'
'z, -y, -x'
'z, y, x'
'-x, -y+1/2, -z+1/2'
'x, y+1/2, -z+1/2'
'x, -y+1/2, z+1/2'
'-x, y+1/2, z+1/2'
'-z, -x+1/2, -y+1/2'
'-z, x+1/2, y+1/2'
'z, x+1/2, -y+1/2'
'z, -x+1/2, y+1/2'
'-y, -z+1/2, -x+1/2'
'y, -z+1/2, x+1/2'
'-y, z+1/2, x+1/2'
'y, z+1/2, -x+1/2'
'-y, -x+1/2, z+1/2'
'y, x+1/2, z+1/2'
'-y, x+1/2, -z+1/2'
'y, -x+1/2, -z+1/2'
'-x, -z+1/2, y+1/2'
'x, -z+1/2, -y+1/2'
'x, z+1/2, y+1/2'
'-x, z+1/2, -y+1/2'
'-z, -y+1/2, x+1/2'
'-z, y+1/2, -x+1/2'
'z, -y+1/2, -x+1/2'
'z, y+1/2, x+1/2'
'-x+1/2, -y, -z+1/2'
'x+1/2, y, -z+1/2'
'x+1/2, -y, z+1/2'
'-x+1/2, y, z+1/2'
'-z+1/2, -x, -y+1/2'
'-z+1/2, x, y+1/2'
'z+1/2, x, -y+1/2'
'z+1/2, -x, y+1/2'
'-y+1/2, -z, -x+1/2'
'y+1/2, -z, x+1/2'
'-y+1/2, z, x+1/2'
'y+1/2, z, -x+1/2'
'-y+1/2, -x, z+1/2'
'y+1/2, x, z+1/2'
'-y+1/2, x, -z+1/2'
'y+1/2, -x, -z+1/2'
'-x+1/2, -z, y+1/2'
'x+1/2, -z, -y+1/2'
'x+1/2, z, y+1/2'
'-x+1/2, z, -y+1/2'
'-z+1/2, -y, x+1/2'
'-z+1/2, y, -x+1/2'
'z+1/2, -y, -x+1/2'
'z+1/2, y, x+1/2'
'-x+1/2, -y+1/2, -z'
'x+1/2, y+1/2, -z'
'x+1/2, -y+1/2, z'
'-x+1/2, y+1/2, z'
'-z+1/2, -x+1/2, -y'
'-z+1/2, x+1/2, y'
'z+1/2, x+1/2, -y'
'z+1/2, -x+1/2, y'
'-y+1/2, -z+1/2, -x'
'y+1/2, -z+1/2, x'
'-y+1/2, z+1/2, x'
'y+1/2, z+1/2, -x'
'-y+1/2, -x+1/2, z'
'y+1/2, x+1/2, z'
'-y+1/2, x+1/2, -z'
'y+1/2, -x+1/2, -z'
'-x+1/2, -z+1/2, y'
'x+1/2, -z+1/2, -y'
'x+1/2, z+1/2, y'
'-x+1/2, z+1/2, -y'
'-z+1/2, -y+1/2, x'
'-z+1/2, y+1/2, -x'
'z+1/2, -y+1/2, -x'
'z+1/2, y+1/2, x'

_cell_length_a                   26.8167(2)
_cell_length_b                   26.8167(2)
_cell_length_c                   26.8167(2)
_cell_angle_alpha                90
_cell_angle_beta                 90
_cell_angle_gamma                90
_cell_volume                     19284.8(4)
_cell_formula_units_Z            4
_cell_measurement_reflns_used    7203
_cell_measurement_temperature    100(2)
_cell_measurement_theta_max      30.89
_cell_measurement_theta_min      3.49
_shelx_estimated_absorpt_T_max   ?
_shelx_estimated_absorpt_T_min   ?
_exptl_absorpt_coefficient_mu    0.414
_exptl_absorpt_correction_T_max  0.7461
_exptl_absorpt_correction_T_min  0.6478
_exptl_absorpt_correction_type   multi-scan
_exptl_absorpt_process_details   
;
SADABS-2014/5 (Bruker,2014/5) was used for absorption correction.
wR2(int) was 0.0698 before and 0.0580 after correction.
The Ratio of minimum to maximum transmission is 0.8682.
The \l/2 correction factor is 0.00150.
;
_exptl_absorpt_special_details   ?
_exptl_crystal_colour            colourless
_exptl_crystal_density_diffrn    0.852
_exptl_crystal_density_meas      ?
_exptl_crystal_density_method    ?
_exptl_crystal_description       octahedron
_exptl_crystal_F_000             4809
_exptl_crystal_size_max          0.04
_exptl_crystal_size_mid          0.04
_exptl_crystal_size_min          0.02
_exptl_transmission_factor_max   ?
_exptl_transmission_factor_min   ?
_diffrn_reflns_av_R_equivalents  0.0400
_diffrn_reflns_av_unetI/netI     0.0275
_diffrn_reflns_Laue_measured_fraction_full 0.970
_diffrn_reflns_Laue_measured_fraction_max 0.975
_diffrn_reflns_limit_h_max       36
_diffrn_reflns_limit_h_min       -31
_diffrn_reflns_limit_k_max       36
_diffrn_reflns_limit_k_min       -19
_diffrn_reflns_limit_l_max       36
_diffrn_reflns_limit_l_min       -15
_diffrn_reflns_number            10300
_diffrn_reflns_point_group_measured_fraction_full 0.970
_diffrn_reflns_point_group_measured_fraction_max 0.975
_diffrn_reflns_theta_full        26.000
_diffrn_reflns_theta_max         30.892
_diffrn_reflns_theta_min         3.495
_diffrn_measured_fraction_theta_full 0.970
_diffrn_measured_fraction_theta_max 0.975
_diffrn_ambient_temperature      100.0
_diffrn_detector                 'CCD area detector'
_diffrn_detector_area_resol_mean 13.6986
_diffrn_detector_type            'Marmosaic 225'
_diffrn_measurement_device       '\k-geometry diffractometer'
_diffrn_measurement_device_type  'MD2 microdiffractometer with MK3 mini-kappa'
_diffrn_measurement_method       '\f scans'
_diffrn_radiation_collimation    'Rh-coated Si focusing mirrors'
_diffrn_radiation_monochromator  'Silicon 111'
_diffrn_radiation_probe          x-ray
_diffrn_radiation_type           synchrotron
_diffrn_radiation_wavelength     0.7600
_diffrn_source                   synchrotron
_diffrn_source_type              'Wiggler, Station I911-3, MAX II, MAXLAB'
_diffrn_standards_number         0
_reflns_Friedel_coverage         0.000
_reflns_Friedel_fraction_full    .
_reflns_Friedel_fraction_max     .
_reflns_number_gt                1232
_reflns_number_total             1314
_reflns_special_details          
;
 Reflections were merged by SHELXL according to the crystal
 class for the calculation of statistics and refinement.
 
 _reflns_Friedel_fraction is defined as the number of unique
 Friedel pairs measured divided by the number that would be
 possible theoretically, ignoring centric projections and
 systematic absences.
;
_reflns_threshold_expression     'I > 2\s(I)'
_computing_cell_refinement       'SAINT v8.34A (Bruker AXS, 2014)'
_computing_data_collection       'APEX2 v2014.11-0 (Bruker AXS, 2014)'
_computing_data_reduction        'SAINT v8.34A (Bruker AXS, 2014)'
_computing_molecular_graphics    'Diamond v4.0.1 (Brandenburg, 2012)'
_computing_publication_material  'Olex2 (Dolomanov et al., 2009)'
_computing_structure_refinement  'XL Ver. 2014/7. (Sheldrick, 2015)'
_computing_structure_solution    'XS Ver. 2013/1. (Sheldrick, 2013)'
_refine_diff_density_max         0.637
_refine_diff_density_min         -0.498
_refine_diff_density_rms         0.063
_refine_ls_extinction_coef       .
_refine_ls_extinction_method     none
_refine_ls_goodness_of_fit_ref   1.179
_refine_ls_hydrogen_treatment    undef
_refine_ls_matrix_type           full
_refine_ls_number_parameters     78
_refine_ls_number_reflns         1314
_refine_ls_number_restraints     0
_refine_ls_R_factor_all          0.0338
_refine_ls_R_factor_gt           0.0323
_refine_ls_restrained_S_all      1.179
_refine_ls_shift/su_max          0.000
_refine_ls_shift/su_mean         0.000
_refine_ls_structure_factor_coef Fsqd
_refine_ls_weighting_details     
'w=1/[\s^2^(Fo^2^)+(0.0505P)^2^+32.3117P] where P=(Fo^2^+2Fc^2^)/3'
_refine_ls_weighting_scheme      calc
_refine_ls_wR_factor_gt          0.0952
_refine_ls_wR_factor_ref         0.0965
_refine_special_details          ?
_olex2_refinement_description    
;
1. Uiso/Uaniso restraints and constraints
Uanis(C19) = Uanis(C1)
Uanis(C4) = Uanis(C12)
Uanis(C0AA) = Uanis(C1AA)
Uanis(C0AA) = Uanis(C17) = Uanis(C1AA) = Uanis(C3)
2. Others
 Sof(C004)=Sof(C005)=Sof(C006)=Sof(C4)=Sof(C1AA)=Sof(C0AA)=Sof(C12)=Sof(C19)=
 Sof(C1)=Sof(C3)=Sof(C17)=0.25*FVAR(2)
 Sof(O002)=0.5*FVAR(2)
 Fixed Sof: O1(0.08333) O2(0.08333) O0AA(0.05556) O3(0.035)
 Fixed X: O3(0.5)
 Fixed Y: O3(0.550301)
 Fixed Z: O3(0.653001)
;
_atom_sites_solution_hydrogens   .
_atom_sites_solution_primary     direct
_atom_sites_solution_secondary   ?
loop_
_atom_site_label
_atom_site_type_symbol
_atom_site_fract_x
_atom_site_fract_y
_atom_site_fract_z
_atom_site_U_iso_or_equiv
_atom_site_adp_type
_atom_site_occupancy
_atom_site_site_symmetry_order
_atom_site_calc_flag
_atom_site_refinement_flags_posn
_atom_site_refinement_flags_adp
_atom_site_refinement_flags_occupancy
_atom_site_disorder_assembly
_atom_site_disorder_group
Zr01 Zr 0.5000 0.5000 0.59218(2) 0.01765(15) Uani 1 8 d S T P . .
O002 O 0.5000 0.57242(7) 0.63194(6) 0.0324(5) Uani 0.877(5) 2 d S T P . .
C004 C 0.5000 0.61693(8) 0.61693(8) 0.0376(8) Uani 0.877(5) 4 d S T P . .
C005 C 0.5000 0.65668(10) 0.65668(10) 0.0656(16) Uani 0.877(5) 4 d S T P . .
C006 C 0.5000 0.73028(11) 0.73028(11) 0.087(2) Uani 0.877(5) 4 d S T P . .
O1 O 0.46148(12) 0.46148(12) 0.53852(12) 0.0185(10) Uani 0.5 6 d S T P . .
O2 O 0.44841(12) 0.44841(12) 0.55159(12) 0.0201(10) Uani 0.5 6 d S T P . .
C4 C 0.4340(9) 0.6035(7) 0.7120(7) 0.177(10) Uani 0.2194(12) 1 d . . . . -1
C1AA C 0.4818(7) 0.6527(6) 0.6959(6) 0.071(3) Uani 0.2194(12) 1 d . . . . -1
C0AA C 0.4641(7) 0.6838(6) 0.7400(6) 0.071(3) Uani 0.2194(12) 1 d . . . . -1
C12 C 0.4298(10) 0.6802(7) 0.7813(7) 0.177(10) Uani 0.2194(12) 1 d . . . . -1
C19 C 0.4002(14) 0.6380(11) 0.7846(11) 0.344(18) Uani 0.2194(12) 1 d . . . . -1
C1 C 0.4037(17) 0.6010(10) 0.7523(11) 0.344(18) Uani 0.2194(12) 1 d . . . . -1
O0AA O 0.3863(8) 0.3863(8) 0.6137(8) 0.212(13) Uani 0.3334 6 d S T P . .
C3 C 0.4639(7) 0.6462(6) 0.7036(6) 0.071(3) Uani 0.2194(12) 1 d . . . . 1
C17 C 0.4819(7) 0.6914(6) 0.7337(6) 0.071(3) Uani 0.2194(12) 1 d . . . . 1
O3 O 0.5000 0.5503 0.6530 0.086(13) Uani 0.07 2 d S T P . .

loop_
_atom_site_aniso_label
_atom_site_aniso_U_11
_atom_site_aniso_U_22
_atom_site_aniso_U_33
_atom_site_aniso_U_23
_atom_site_aniso_U_13
_atom_site_aniso_U_12
Zr01 0.02168(16) 0.02168(16) 0.00958(18) 0.000 0.000 0.000
O002 0.0452(10) 0.0329(10) 0.0191(8) -0.0133(7) 0.000 0.000
C004 0.053(2) 0.0301(11) 0.0301(11) -0.0187(14) 0.000 0.000
C005 0.118(5) 0.0391(15) 0.0391(15) -0.0284(18) 0.000 0.000
C006 0.160(7) 0.050(2) 0.050(2) -0.038(2) 0.000 0.000
O1 0.0185(10) 0.0185(10) 0.0185(10) 0.0035(11) 0.0035(11) -0.0035(11)
O2 0.0201(10) 0.0201(10) 0.0201(10) 0.0035(11) 0.0035(11) -0.0035(11)
C4 0.27(2) 0.137(10) 0.126(10) -0.110(9) 0.143(13) -0.112(12)
C1AA 0.105(11) 0.059(4) 0.049(4) -0.034(3) 0.029(4) -0.027(4)
C0AA 0.105(11) 0.059(4) 0.049(4) -0.034(3) 0.029(4) -0.027(4)
C12 0.27(2) 0.137(10) 0.126(10) -0.110(9) 0.143(13) -0.112(12)
C19 0.48(4) 0.252(19) 0.30(2) -0.233(16) 0.35(3) -0.28(2)
C1 0.48(4) 0.252(19) 0.30(2) -0.233(16) 0.35(3) -0.28(2)
O0AA 0.212(13) 0.212(13) 0.212(13) 0.024(15) 0.024(15) -0.024(15)
C3 0.105(11) 0.059(4) 0.049(4) -0.034(3) 0.029(4) -0.027(4)
C17 0.105(11) 0.059(4) 0.049(4) -0.034(3) 0.029(4) -0.027(4)
O3 0.12(3) 0.11(3) 0.028(15) -0.043(18) 0.000 0.000

_geom_special_details            
;
 All esds (except the esd in the dihedral angle between two l.s. planes)
 are estimated using the full covariance matrix.  The cell esds are taken
 into account individually in the estimation of esds in distances, angles
 and torsion angles; correlations between esds in cell parameters are only
 used when they are defined by crystal symmetry.  An approximate (isotropic)
 treatment of cell esds is used for estimating esds involving l.s. planes.
;
loop_
_geom_bond_atom_site_label_1
_geom_bond_atom_site_label_2
_geom_bond_distance
_geom_bond_site_symmetry_2
_geom_bond_publ_flag
Zr01 O002 2.2155(17) 2_665 ?
Zr01 O002 2.2155(17) . ?
Zr01 O002 2.2155(17) 109_665 ?
Zr01 O002 2.2155(17) 110 ?
Zr01 O1 2.0505(10) 100_655 ?
Zr01 O1 2.0505(10) . ?
Zr01 O1 2.0505(10) 99_565 ?
Zr01 O1 2.0505(10) 2_665 ?
Zr01 O3 2.1166(2) . ?
Zr01 O3 2.1166(2) 110 ?
Zr01 O3 2.1166(2) 109_665 ?
Zr01 O3 2.1166(2) 2_665 ?
O002 C004 1.260(2) . ?
O002 O3 0.8191(19) . ?
C004 O002 1.260(2) 18_655 ?
C004 C005 1.507(5) . ?
C005 C1AA 1.164(12) . ?
C005 C3 1.611(12) 18_655 ?
C005 C3 1.612(12) . ?
C005 C3 1.611(12) 100_655 ?
C005 C3 1.611(12) 115 ?
C006 C006 1.496(8) 121_666 ?
C006 C0AA 1.596(12) . ?
C006 C17 1.153(13) . ?
C006 C17 1.153(13) 115 ?
C006 C17 1.153(13) 18_655 ?
C006 C17 1.153(13) 100_655 ?
O1 Zr01 2.0505(10) 101_666 ?
O1 Zr01 2.0505(10) 105_666 ?
O1 O2 0.607(5) . ?
O2 Zr01 2.239(2) 101_666 ?
O2 Zr01 2.239(2) 105_666 ?
C4 C1AA 1.890(19) . ?
C4 C1 1.35(2) . ?
C4 C3 1.42(2) . ?
C1AA C0AA 1.52(2) . ?
C1AA C3 0.550(18) . ?
C1AA C17 1.452(11) . ?
C0AA C12 1.444(18) . ?
C0AA C3 1.405(12) . ?
C0AA C17 0.545(18) . ?
C12 C19 1.38(2) . ?
C12 C17 1.916(19) . ?
C19 C1 1.32(2) . ?
C3 C3 1.94(4) 100_655 ?
C3 C17 1.54(2) . ?
C17 C17 1.60(4) 115 ?
C17 C17 1.88(2) 18_655 ?
C17 C17 0.97(4) 100_655 ?

loop_
_geom_angle_atom_site_label_1
_geom_angle_atom_site_label_2
_geom_angle_atom_site_label_3
_geom_angle
_geom_angle_site_symmetry_1
_geom_angle_site_symmetry_3
_geom_angle_publ_flag
O002 Zr01 O002 76.61(4) 109_665 . ?
O002 Zr01 O002 76.61(4) 2_665 109_665 ?
O002 Zr01 O002 122.46(10) 110 109_665 ?
O002 Zr01 O002 76.61(4) 110 . ?
O002 Zr01 O002 122.46(10) 2_665 . ?
O002 Zr01 O002 76.61(4) 110 2_665 ?
O1 Zr01 O002 84.04(12) 100_655 2_665 ?
O1 Zr01 O002 84.04(12) 2_665 110 ?
O1 Zr01 O002 84.04(12) 99_565 . ?
O1 Zr01 O002 141.20(4) 99_565 2_665 ?
O1 Zr01 O002 141.20(4) . . ?
O1 Zr01 O002 141.20(4) 2_665 2_665 ?
O1 Zr01 O002 141.20(4) 99_565 110 ?
O1 Zr01 O002 84.04(12) 2_665 . ?
O1 Zr01 O002 141.20(4) . 110 ?
O1 Zr01 O002 84.04(12) 100_655 110 ?
O1 Zr01 O002 141.20(4) 100_655 . ?
O1 Zr01 O002 141.20(4) 100_655 109_665 ?
O1 Zr01 O002 84.04(12) . 2_665 ?
O1 Zr01 O002 84.04(12) 99_565 109_665 ?
O1 Zr01 O002 84.04(12) . 109_665 ?
O1 Zr01 O002 141.20(4) 2_665 109_665 ?
O1 Zr01 O1 60.50(17) . 100_655 ?
O1 Zr01 O1 60.50(17) 100_655 2_665 ?
O1 Zr01 O1 90.9(3) . 2_665 ?
O1 Zr01 O1 60.50(17) . 99_565 ?
O1 Zr01 O1 90.9(3) 100_655 99_565 ?
O1 Zr01 O1 60.50(17) 99_565 2_665 ?
O1 Zr01 O3 102.69(13) 99_565 109_665 ?
O1 Zr01 O3 102.69(13) 99_565 . ?
O1 Zr01 O3 149.52(7) . . ?
O1 Zr01 O3 102.69(13) . 2_665 ?
O1 Zr01 O3 149.52(7) 100_655 109_665 ?
O1 Zr01 O3 149.52(7) 99_565 2_665 ?
O1 Zr01 O3 149.52(7) 2_665 109_665 ?
O1 Zr01 O3 149.52(7) . 110 ?
O1 Zr01 O3 102.69(13) 100_655 2_665 ?
O1 Zr01 O3 102.69(13) 100_655 110 ?
O1 Zr01 O3 149.52(7) 2_665 2_665 ?
O1 Zr01 O3 149.52(7) 99_565 110 ?
O1 Zr01 O3 149.52(7) 100_655 . ?
O1 Zr01 O3 102.69(13) 2_665 110 ?
O1 Zr01 O3 102.69(13) 2_665 . ?
O1 Zr01 O3 102.69(13) . 109_665 ?
O3 Zr01 O002 68.23(4) 2_665 109_665 ?
O3 Zr01 O002 68.23(4) 110 . ?
O3 Zr01 O002 68.23(4) 109_665 2_665 ?
O3 Zr01 O002 68.23(4) . 109_665 ?
O3 Zr01 O002 100.82(5) 2_665 . ?
O3 Zr01 O002 21.64(5) 2_665 2_665 ?
O3 Zr01 O002 68.23(3) 110 2_665 ?
O3 Zr01 O002 100.82(5) . 2_665 ?
O3 Zr01 O002 68.23(3) 109_665 . ?
O3 Zr01 O002 68.23(4) 2_665 110 ?
O3 Zr01 O002 21.64(5) . . ?
O3 Zr01 O002 21.64(5) 110 110 ?
O3 Zr01 O002 100.82(5) 110 109_665 ?
O3 Zr01 O002 100.82(5) 109_665 110 ?
O3 Zr01 O002 68.23(4) . 110 ?
O3 Zr01 O002 21.64(5) 109_665 109_665 ?
O3 Zr01 O3 53.570(6) 110 2_665 ?
O3 Zr01 O3 79.182(9) 2_665 . ?
O3 Zr01 O3 53.570(6) 109_665 . ?
O3 Zr01 O3 53.570(6) 109_665 2_665 ?
O3 Zr01 O3 79.182(10) 110 109_665 ?
O3 Zr01 O3 53.570(6) 110 . ?
C004 O002 Zr01 132.61(16) . . ?
O3 O002 Zr01 72.37(12) . . ?
O3 O002 C004 155.0(2) . . ?
O002 C004 O002 127.3(3) . 18_655 ?
O002 C004 C005 116.37(14) 18_655 . ?
O002 C004 C005 116.38(14) . . ?
C004 C005 C3 115.3(5) . 18_655 ?
C004 C005 C3 115.3(5) . . ?
C004 C005 C3 115.3(5) . 100_655 ?
C004 C005 C3 115.3(5) . 115 ?
C1AA C005 C004 125.0(7) . . ?
C1AA C005 C3 13.4(14) . . ?
C1AA C005 C3 62.0(7) . 100_655 ?
C1AA C005 C3 88.7(7) . 115 ?
C1AA C005 C3 118.8(6) . 18_655 ?
C3 C005 C3 85.0(16) 18_655 100_655 ?
C3 C005 C3 129.3(10) 100_655 115 ?
C3 C005 C3 73.8(16) 100_655 . ?
C3 C005 C3 85.0(16) 115 . ?
C3 C005 C3 129.3(10) 18_655 . ?
C3 C005 C3 73.8(16) 18_655 115 ?
C006 C006 C0AA 115.9(5) 121_666 . ?
C17 C006 C006 125.6(7) 100_655 121_666 ?
C17 C006 C006 125.6(7) . 121_666 ?
C17 C006 C006 125.6(7) 18_655 121_666 ?
C17 C006 C006 125.6(7) 115 121_666 ?
C17 C006 C0AA 87.5(7) 115 . ?
C17 C006 C0AA 62.3(8) 100_655 . ?
C17 C006 C0AA 117.7(6) 18_655 . ?
C17 C006 C0AA 13.4(14) . . ?
C17 C006 C17 108.8(14) 115 100_655 ?
C17 C006 C17 50(2) . 100_655 ?
C17 C006 C17 50(2) 115 18_655 ?
C17 C006 C17 88(2) . 115 ?
C17 C006 C17 108.8(14) . 18_655 ?
C17 C006 C17 88(2) 18_655 100_655 ?
Zr01 O1 Zr01 116.95(9) 105_666 101_666 ?
Zr01 O1 Zr01 116.95(9) 105_666 . ?
Zr01 O1 Zr01 116.95(9) 101_666 . ?
O2 O1 Zr01 100.17(15) . . ?
O2 O1 Zr01 100.17(15) . 105_666 ?
O2 O1 Zr01 100.17(15) . 101_666 ?
Zr01 O2 Zr01 102.64(15) 105_666 101_666 ?
Zr01 O2 Zr01 102.64(15) 105_666 . ?
Zr01 O2 Zr01 102.64(15) 101_666 . ?
O1 O2 Zr01 64.35(13) . . ?
O1 O2 Zr01 64.35(13) . 105_666 ?
O1 O2 Zr01 64.35(13) . 101_666 ?
C1 C4 C1AA 128.6(16) . . ?
C1 C4 C3 120.5(16) . . ?
C3 C4 C1AA 9.8(11) . . ?
C005 C1AA C4 123.7(11) . . ?
C005 C1AA C0AA 141.5(17) . . ?
C005 C1AA C17 124.4(11) . . ?
C0AA C1AA C4 89.6(8) . . ?
C3 C1AA C005 137(4) . . ?
C3 C1AA C4 26(3) . . ?
C3 C1AA C0AA 67(2) . . ?
C3 C1AA C17 88(3) . . ?
C17 C1AA C4 109.9(8) . . ?
C17 C1AA C0AA 20.9(7) . . ?
C1AA C0AA C006 96.5(8) . . ?
C12 C0AA C006 124.2(11) . . ?
C12 C0AA C1AA 139.3(12) . . ?
C3 C0AA C006 116.7(9) . . ?
C3 C0AA C1AA 21.2(8) . . ?
C3 C0AA C12 118.9(11) . . ?
C17 C0AA C006 29(3) . . ?
C17 C0AA C1AA 72(3) . . ?
C17 C0AA C12 145(4) . . ?
C17 C0AA C3 93(3) . . ?
C0AA C12 C17 9.4(10) . . ?
C19 C12 C0AA 117.9(11) . . ?
C19 C12 C17 126.0(11) . . ?
C1 C19 C12 122.2(18) . . ?
C19 C1 C4 122(3) . . ?
C005 C3 C3 53.1(8) . 100_655 ?
C4 C3 C005 127.3(10) . . ?
C4 C3 C3 124.5(15) . 100_655 ?
C4 C3 C17 137.1(13) . . ?
C1AA C3 C005 29(3) . . ?
C1AA C3 C4 144(4) . . ?
C1AA C3 C0AA 92(3) . . ?
C1AA C3 C3 29(5) . 100_655 ?
C1AA C3 C17 71(2) . . ?
C0AA C3 C005 114.5(9) . . ?
C0AA C3 C4 118.2(10) . . ?
C0AA C3 C3 89.8(9) . 100_655 ?
C0AA C3 C17 20.7(8) . . ?
C17 C3 C005 94.8(8) . . ?
C17 C3 C3 71.7(12) . 100_655 ?
C006 C17 C1AA 126.2(10) . . ?
C006 C17 C12 120.2(11) . . ?
C006 C17 C3 143.5(16) . . ?
C006 C17 C17 35.6(7) . 18_655 ?
C006 C17 C17 46.0(11) . 115 ?
C1AA C17 C12 110.6(8) . . ?
C1AA C17 C3 21.0(7) . . ?
C1AA C17 C17 90.6(6) . 18_655 ?
C1AA C17 C17 90.7(7) . 115 ?
C0AA C17 C006 137(4) . . ?
C0AA C17 C1AA 87(3) . . ?
C0AA C17 C12 26(3) . . ?
C0AA C17 C3 66(3) . . ?
C0AA C17 C17 150(6) . 18_655 ?
C0AA C17 C17 151(5) . 100_655 ?
C0AA C17 C17 119(5) . 115 ?
C3 C17 C12 89.9(8) . . ?
C3 C17 C17 100.8(13) . 115 ?
C3 C17 C17 108.8(10) . 18_655 ?
C17 C17 C006 65.1(11) 100_655 . ?
C17 C17 C1AA 90.1(7) 100_655 . ?
C17 C17 C12 136.8(12) 100_655 . ?
C17 C17 C12 125.6(12) 115 . ?
C17 C17 C12 151.1(17) 18_655 . ?
C17 C17 C3 108.3(12) 100_655 . ?
C17 C17 C17 58.8(15) 100_655 18_655 ?
C17 C17 C17 90.003(6) 100_655 115 ?
C17 C17 C17 31.3(15) 115 18_655 ?
O002 O3 Zr01 85.99(12) . . ?

loop_
_geom_torsion_atom_site_label_1
_geom_torsion_atom_site_label_2
_geom_torsion_atom_site_label_3
_geom_torsion_atom_site_label_4
_geom_torsion
_geom_torsion_site_symmetry_1
_geom_torsion_site_symmetry_2
_geom_torsion_site_symmetry_3
_geom_torsion_site_symmetry_4
_geom_torsion_publ_flag
Zr01 O002 C004 O002 0.000(2) . . . 18_655 ?
Zr01 O002 C004 C005 180.000(1) . . . . ?
Zr01 O1 O2 Zr01 120.000(0) . . . 101_666 ?
Zr01 O1 O2 Zr01 -120.000(0) 101_666 . . . ?
Zr01 O1 O2 Zr01 120.000(1) 105_666 . . . ?
Zr01 O1 O2 Zr01 120.000(1) 101_666 . . 105_666 ?
Zr01 O1 O2 Zr01 -120.000(1) 105_666 . . 101_666 ?
Zr01 O1 O2 Zr01 -120.000(1) . . . 105_666 ?
O002 C004 C005 C1AA 149.2(14) 18_655 . . . ?
O002 C004 C005 C1AA -30.8(14) . . . . ?
O002 C004 C005 C3 -41.6(10) . . . . ?
O002 C004 C005 C3 138.4(10) . . . 18_655 ?
O002 C004 C005 C3 41.6(10) 18_655 . . 115 ?
O002 C004 C005 C3 138.4(10) 18_655 . . . ?
O002 C004 C005 C3 -41.6(10) 18_655 . . 18_655 ?
O002 C004 C005 C3 -138.4(10) 18_655 . . 100_655 ?
O002 C004 C005 C3 -138.4(10) . . . 115 ?
O002 C004 C005 C3 41.6(10) . . . 100_655 ?
C004 O002 O3 Zr01 180.000(1) . . . . ?
C004 C005 C1AA C4 -17(3) . . . . ?
C004 C005 C1AA C0AA -163(3) . . . . ?
C004 C005 C1AA C3 -47(8) . . . . ?
C004 C005 C1AA C17 -179.7(9) . . . . ?
C004 C005 C3 C4 2(3) . . . . ?
C004 C005 C3 C1AA 139(7) . . . . ?
C004 C005 C3 C0AA -179.5(11) . . . . ?
C004 C005 C3 C3 110.8(7) . . . 100_655 ?
C004 C005 C3 C17 173.7(13) . . . . ?
C005 C1AA C0AA C006 -25(4) . . . . ?
C005 C1AA C0AA C12 157(3) . . . . ?
C005 C1AA C0AA C3 138(8) . . . . ?
C005 C1AA C0AA C17 -42(8) . . . . ?
C005 C1AA C3 C4 70(12) . . . . ?
C005 C1AA C3 C0AA -143(5) . . . . ?
C005 C1AA C3 C3 131(9) . . . 100_655 ?
C005 C1AA C3 C17 -143(6) . . . . ?
C005 C1AA C17 C006 -1(2) . . . . ?
C005 C1AA C17 C0AA 150(6) . . . . ?
C005 C1AA C17 C12 159(2) . . . . ?
C005 C1AA C17 C3 150(6) . . . . ?
C005 C1AA C17 C17 -0.6(17) . . . 18_655 ?
C005 C1AA C17 C17 -59.4(17) . . . 100_655 ?
C005 C1AA C17 C17 30.6(17) . . . 115 ?
C005 C3 C17 C006 24(5) . . . . ?
C005 C3 C17 C1AA -17(4) . . . . ?
C005 C3 C17 C0AA 162(4) . . . . ?
C005 C3 C17 C12 171.4(12) . . . . ?
C005 C3 C17 C17 -48.5(13) . . . 100_655 ?
C005 C3 C17 C17 14(3) . . . 18_655 ?
C005 C3 C17 C17 45.1(12) . . . 115 ?
C006 C006 C0AA C1AA -172.9(14) 121_666 . . . ?
C006 C006 C0AA C12 5(3) 121_666 . . . ?
C006 C006 C0AA C3 -179.5(11) 121_666 . . . ?
C006 C006 C0AA C17 -139(7) 121_666 . . . ?
C006 C006 C17 C1AA -179.7(10) 121_666 . . . ?
C006 C006 C17 C0AA 47(8) 121_666 . . . ?
C006 C006 C17 C12 22(3) 121_666 . . . ?
C006 C006 C17 C3 163(3) 121_666 . . . ?
C006 C006 C17 C17 133.8(16) 121_666 . . 115 ?
C006 C006 C17 C17 -109.5(11) 121_666 . . 100_655 ?
C006 C006 C17 C17 180.003(9) 121_666 . . 18_655 ?
C006 C0AA C12 C19 179(3) . . . . ?
C006 C0AA C12 C17 -30(8) . . . . ?
C006 C0AA C3 C005 -0.9(19) . . . . ?
C006 C0AA C3 C4 177(2) . . . . ?
C006 C0AA C3 C1AA 18(4) . . . . ?
C006 C0AA C3 C3 47.7(13) . . . 100_655 ?
C006 C0AA C3 C17 19(4) . . . . ?
C006 C0AA C17 C1AA -144(6) . . . . ?
C006 C0AA C17 C12 57(14) . . . . ?
C006 C0AA C17 C3 -144(5) . . . . ?
C006 C0AA C17 C17 -55(6) . . . 115 ?
C006 C0AA C17 C17 131(10) . . . 100_655 ?
C006 C0AA C17 C17 -58(7) . . . 18_655 ?
C4 C1AA C0AA C006 -177.2(12) . . . . ?
C4 C1AA C0AA C12 5(5) . . . . ?
C4 C1AA C0AA C3 -14(4) . . . . ?
C4 C1AA C0AA C17 166(4) . . . . ?
C4 C1AA C3 C005 -70(12) . . . . ?
C4 C1AA C3 C0AA 148(8) . . . . ?
C4 C1AA C3 C3 61(10) . . . 100_655 ?
C4 C1AA C3 C17 148(7) . . . . ?
C4 C1AA C17 C006 -165(2) . . . . ?
C4 C1AA C17 C0AA -15(5) . . . . ?
C4 C1AA C17 C12 -5.1(19) . . . . ?
C4 C1AA C17 C3 -14(4) . . . . ?
C4 C1AA C17 C17 -165(2) . . . 18_655 ?
C4 C1AA C17 C17 -133.9(14) . . . 115 ?
C4 C1AA C17 C17 136.1(14) . . . 100_655 ?
C4 C3 C17 C006 -166(3) . . . . ?
C4 C3 C17 C1AA 153(7) . . . . ?
C4 C3 C17 C0AA -28(7) . . . . ?
C4 C3 C17 C12 -19(4) . . . . ?
C4 C3 C17 C17 -145(3) . . . 115 ?
C4 C3 C17 C17 121(3) . . . 100_655 ?
C4 C3 C17 C17 -176(3) . . . 18_655 ?
C1AA C005 C3 C4 -136(9) . . . . ?
C1AA C005 C3 C0AA 42(6) . . . . ?
C1AA C005 C3 C3 -28(7) . . . 100_655 ?
C1AA C005 C3 C17 35(6) . . . . ?
C1AA C4 C1 C19 8(8) . . . . ?
C1AA C4 C3 C005 35(7) . . . . ?
C1AA C4 C3 C0AA -143(9) . . . . ?
C1AA C4 C3 C3 -31(8) . . . 100_655 ?
C1AA C4 C3 C17 -132(11) . . . . ?
C1AA C0AA C12 C19 -4(6) . . . . ?
C1AA C0AA C12 C17 147(13) . . . . ?
C1AA C0AA C3 C005 -19(4) . . . . ?
C1AA C0AA C3 C4 159(6) . . . . ?
C1AA C0AA C3 C3 29(5) . . . 100_655 ?
C1AA C0AA C3 C17 0(4) . . . . ?
C1AA C0AA C17 C006 144(6) . . . . ?
C1AA C0AA C17 C12 -158(9) . . . . ?
C1AA C0AA C17 C3 -0.2(15) . . . . ?
C1AA C0AA C17 C17 86(5) . . . 18_655 ?
C1AA C0AA C17 C17 89.0(17) . . . 115 ?
C1AA C0AA C17 C17 -85(5) . . . 100_655 ?
C1AA C3 C17 C006 41(8) . . . . ?
C1AA C3 C17 C0AA 180(4) . . . . ?
C1AA C3 C17 C12 -171(4) . . . . ?
C1AA C3 C17 C17 -31(5) . . . 100_655 ?
C1AA C3 C17 C17 62(5) . . . 115 ?
C1AA C3 C17 C17 31(6) . . . 18_655 ?
C0AA C006 C17 C1AA 134(8) . . . . ?
C0AA C006 C17 C12 -25(6) . . . . ?
C0AA C006 C17 C3 117(10) . . . . ?
C0AA C006 C17 C17 -156(7) . . . 100_655 ?
C0AA C006 C17 C17 87(7) . . . 115 ?
C0AA C006 C17 C17 133(8) . . . 18_655 ?
C0AA C1AA C3 C005 143(5) . . . . ?
C0AA C1AA C3 C4 -148(8) . . . . ?
C0AA C1AA C3 C3 -87(5) . . . 100_655 ?
C0AA C1AA C3 C17 -0.2(15) . . . . ?
C0AA C1AA C17 C006 -150(6) . . . . ?
C0AA C1AA C17 C12 10(4) . . . . ?
C0AA C1AA C17 C3 0(4) . . . . ?
C0AA C1AA C17 C17 -119(5) . . . 115 ?
C0AA C1AA C17 C17 151(5) . . . 100_655 ?
C0AA C1AA C17 C17 -150(6) . . . 18_655 ?
C0AA C12 C19 C1 2(7) . . . . ?
C0AA C3 C17 C006 -138(8) . . . . ?
C0AA C3 C17 C1AA -180(4) . . . . ?
C0AA C3 C17 C12 9(4) . . . . ?
C0AA C3 C17 C17 149(5) . . . 100_655 ?
C0AA C3 C17 C17 -117(5) . . . 115 ?
C0AA C3 C17 C17 -148(7) . . . 18_655 ?
C12 C0AA C3 C005 174(2) . . . . ?
C12 C0AA C3 C4 -7(3) . . . . ?
C12 C0AA C3 C1AA -166(5) . . . . ?
C12 C0AA C3 C3 -137(2) . . . 100_655 ?
C12 C0AA C3 C17 -166(6) . . . . ?
C12 C0AA C17 C006 -57(14) . . . . ?
C12 C0AA C17 C1AA 158(9) . . . . ?
C12 C0AA C17 C3 158(9) . . . . ?
C12 C0AA C17 C17 74(10) . . . 100_655 ?
C12 C0AA C17 C17 -113(8) . . . 115 ?
C12 C0AA C17 C17 -116(8) . . . 18_655 ?
C12 C19 C1 C4 -5(9) . . . . ?
C1 C4 C1AA C005 -166(4) . . . . ?
C1 C4 C1AA C0AA -7(4) . . . . ?
C1 C4 C1AA C3 -36(9) . . . . ?
C1 C4 C1AA C17 -1(4) . . . . ?
C1 C4 C3 C005 -177(3) . . . . ?
C1 C4 C3 C1AA 148(8) . . . . ?
C1 C4 C3 C0AA 5(4) . . . . ?
C1 C4 C3 C3 116(3) . . . 100_655 ?
C1 C4 C3 C17 16(6) . . . . ?
C3 C005 C1AA C4 30(6) . . . . ?
C3 C005 C1AA C4 103(2) 115 . . . ?
C3 C005 C1AA C4 174.0(13) 18_655 . . . ?
C3 C005 C1AA C4 -120(3) 100_655 . . . ?
C3 C005 C1AA C0AA -116(10) . . . . ?
C3 C005 C1AA C0AA -42(3) 115 . . . ?
C3 C005 C1AA C0AA 94(3) 100_655 . . . ?
C3 C005 C1AA C0AA 28(5) 18_655 . . . ?
C3 C005 C1AA C3 -149(8) 100_655 . . . ?
C3 C005 C1AA C3 74(7) 115 . . . ?
C3 C005 C1AA C3 144(6) 18_655 . . . ?
C3 C005 C1AA C17 -133(8) . . . . ?
C3 C005 C1AA C17 -59.2(13) 115 . . . ?
C3 C005 C1AA C17 11(3) 18_655 . . . ?
C3 C005 C1AA C17 77.6(14) 100_655 . . . ?
C3 C005 C3 C4 118(2) 115 . . . ?
C3 C005 C3 C4 -178(3) 18_655 . . . ?
C3 C005 C3 C4 -109(2) 100_655 . . . ?
C3 C005 C3 C1AA -106(7) 115 . . . ?
C3 C005 C3 C1AA -41(7) 18_655 . . . ?
C3 C005 C3 C1AA 28(7) 100_655 . . . ?
C3 C005 C3 C0AA -63.8(16) 115 . . . ?
C3 C005 C3 C0AA 69.7(15) 100_655 . . . ?
C3 C005 C3 C0AA 0.5(11) 18_655 . . . ?
C3 C005 C3 C3 -133.5(8) 115 . . 100_655 ?
C3 C005 C3 C3 -69.2(7) 18_655 . . 100_655 ?
C3 C005 C3 C17 -6.3(13) 18_655 . . . ?
C3 C005 C3 C17 63(2) 100_655 . . . ?
C3 C005 C3 C17 -71(2) 115 . . . ?
C3 C4 C1AA C005 -130(10) . . . . ?
C3 C4 C1AA C0AA 30(7) . . . . ?
C3 C4 C1AA C17 35(8) . . . . ?
C3 C4 C1 C19 1(7) . . . . ?
C3 C1AA C0AA C006 -164(4) . . . . ?
C3 C1AA C0AA C12 18(7) . . . . ?
C3 C1AA C0AA C17 180(4) . . . . ?
C3 C1AA C17 C006 -151(6) . . . . ?
C3 C1AA C17 C0AA 0(4) . . . . ?
C3 C1AA C17 C12 9(4) . . . . ?
C3 C1AA C17 C17 151(5) . . . 100_655 ?
C3 C1AA C17 C17 -119(5) . . . 115 ?
C3 C1AA C17 C17 -151(6) . . . 18_655 ?
C3 C0AA C12 C19 4(4) . . . . ?
C3 C0AA C12 C17 155(11) . . . . ?
C3 C0AA C17 C006 144(5) . . . . ?
C3 C0AA C17 C1AA 0.2(15) . . . . ?
C3 C0AA C17 C12 -158(9) . . . . ?
C3 C0AA C17 C17 89.2(19) . . . 115 ?
C3 C0AA C17 C17 -84(5) . . . 100_655 ?
C3 C0AA C17 C17 86(5) . . . 18_655 ?
C3 C3 C17 C006 72(3) 100_655 . . . ?
C3 C3 C17 C1AA 31(5) 100_655 . . . ?
C3 C3 C17 C0AA -149(5) 100_655 . . . ?
C3 C3 C17 C12 -140.1(15) 100_655 . . . ?
C3 C3 C17 C17 -0.003(3) 100_655 . . 100_655 ?
C3 C3 C17 C17 93.6(3) 100_655 . . 115 ?
C3 C3 C17 C17 62.3(17) 100_655 . . 18_655 ?
C17 C006 C0AA C1AA -34(6) . . . . ?
C17 C006 C0AA C1AA 58.3(16) 115 . . . ?
C17 C006 C0AA C1AA 17(3) 18_655 . . . ?
C17 C006 C0AA C1AA -54.5(14) 100_655 . . . ?
C17 C006 C0AA C12 -123(3) 115 . . . ?
C17 C006 C0AA C12 144(9) . . . . ?
C17 C006 C0AA C12 -164.6(19) 18_655 . . . ?
C17 C006 C0AA C12 124(3) 100_655 . . . ?
C17 C006 C0AA C3 10(3) 18_655 . . . ?
C17 C006 C0AA C3 -61.1(14) 100_655 . . . ?
C17 C006 C0AA C3 51.8(14) 115 . . . ?
C17 C006 C0AA C3 -41(7) . . . . ?
C17 C006 C0AA C17 -20(6) 100_655 . . . ?
C17 C006 C0AA C17 51(9) 18_655 . . . ?
C17 C006 C0AA C17 92(7) 115 . . . ?
C17 C006 C17 C1AA -70.2(18) 100_655 . . . ?
C17 C006 C17 C1AA 0.3(10) 18_655 . . . ?
C17 C006 C17 C1AA 47(2) 115 . . . ?
C17 C006 C17 C0AA -87(7) 115 . . . ?
C17 C006 C17 C0AA -133(8) 18_655 . . . ?
C17 C006 C17 C0AA 156(7) 100_655 . . . ?
C17 C006 C17 C12 -158(3) 18_655 . . . ?
C17 C006 C17 C12 131.3(17) 100_655 . . . ?
C17 C006 C17 C12 -112.0(16) 115 . . . ?
C17 C006 C17 C3 29(5) 115 . . . ?
C17 C006 C17 C3 -87(4) 100_655 . . . ?
C17 C006 C17 C3 -17(3) 18_655 . . . ?
C17 C006 C17 C17 -46.2(16) 18_655 . . 115 ?
C17 C006 C17 C17 70.5(11) 18_655 . . 100_655 ?
C17 C006 C17 C17 46.2(16) 115 . . 18_655 ?
C17 C006 C17 C17 -70.5(11) 100_655 . . 18_655 ?
C17 C006 C17 C17 -116.7(9) 100_655 . . 115 ?
C17 C006 C17 C17 116.7(9) 115 . . 100_655 ?
C17 C1AA C0AA C006 17(4) . . . . ?
C17 C1AA C0AA C12 -161(8) . . . . ?
C17 C1AA C0AA C3 -180(4) . . . . ?
C17 C1AA C3 C005 143(6) . . . . ?
C17 C1AA C3 C4 -148(7) . . . . ?
C17 C1AA C3 C0AA 0.2(15) . . . . ?
C17 C1AA C3 C3 -87(5) . . . 100_655 ?
C17 C0AA C12 C19 -151(9) . . . . ?
C17 C0AA C3 C005 -20(5) . . . . ?
C17 C0AA C3 C4 159(6) . . . . ?
C17 C0AA C3 C1AA 0(4) . . . . ?
C17 C0AA C3 C3 29(5) . . . 100_655 ?
C17 C12 C19 C1 -3(7) . . . . ?
O3 O002 C004 O002 180.000(1) . . . 18_655 ?
O3 O002 C004 C005 0.000(3) . . . . ?

_shelx_res_file                  
;
    lp20-fc80_a.res created by SHELXL-2014/7

TITL LP20-FC80_a.res in Fm-3m
REM Old TITL LP20-FC80 in Fm-3m
REM SHELXT solution in Fm-3m
REM R1 0.143, Rweak 0.009, Alpha 0.019, Orientation as input
REM Formula found by SHELXT: C22 O12 Zr3
CELL 0.75 26.8167 26.8167 26.8167 90 90 90
ZERR 4 0.0002 0.0002 0.0002 0 0 0
LATT 4
SYMM -X,-Y,+Z
SYMM -X,+Y,-Z
SYMM +X,-Y,-Z
SYMM +Z,+X,+Y
SYMM +Z,-X,-Y
SYMM -Z,-X,+Y
SYMM -Z,+X,-Y
SYMM +Y,+Z,+X
SYMM -Y,+Z,-X
SYMM +Y,-Z,-X
SYMM -Y,-Z,+X
SYMM +Y,+X,-Z
SYMM -Y,-X,-Z
SYMM +Y,-X,+Z
SYMM -Y,+X,+Z
SYMM +X,+Z,-Y
SYMM -X,+Z,+Y
SYMM -X,-Z,-Y
SYMM +X,-Z,+Y
SYMM +Z,+Y,-X
SYMM +Z,-Y,+X
SYMM -Z,+Y,+X
SYMM -Z,-Y,-X
SFAC C O Zr
DISP C 0.004 0.002 12.834
DISP O 0.013 0.007 37.215
DISP Zr -2.087 0.642 2874.76
UNIT 463.31 133.62 24
EADP C19 C1
EADP C4 C12
EADP C0AA C1AA
EADP C0AA C17 C1AA C3

L.S. 100
PLAN  20
TEMP -173.15
BOND $H
LIST 3
MORE -1
CONF
fmap 2
acta 52
OMIT 21 21 21
REM <olex2.extras>
REM <HklSrc "%.\\LP20-FC80_a.hkl">
REM </olex2.extras>

WGHT    0.050500   32.311699
FVAR       0.17093   0.87747
ZR01  3    0.500000    0.500000    0.592178    10.12500    0.02168    0.02168 =
         0.00958    0.00000    0.00000    0.00000
O002  2    0.500000    0.572421    0.631936    20.50000    0.04521    0.03291 =
         0.01914   -0.01333    0.00000    0.00000
C004  1    0.500000    0.616934    0.616934    20.25000    0.05269    0.03012 =
         0.03012   -0.01872    0.00000    0.00000
C005  1    0.500000    0.656680    0.656680    20.25000    0.11849    0.03912 =
         0.03912   -0.02837    0.00000    0.00000
C006  1    0.500000    0.730279    0.730279    20.25000    0.16017    0.05020 =
         0.05020   -0.03840    0.00000    0.00000
O1    2    0.461482    0.461482    0.538518    10.08333    0.01854    0.01854 =
         0.01854    0.00354    0.00354   -0.00354
O2    2    0.448406    0.448406    0.551594    10.08333    0.02010    0.02010 =
         0.02010    0.00350    0.00350   -0.00350
PART -1
C4    1    0.434030    0.603477    0.712025    20.25000    0.26928    0.13656 =
         0.12554   -0.10993    0.14305   -0.11153
C1AA  1    0.481786    0.652715    0.695884    20.25000    0.10517    0.05866 =
         0.04928   -0.03440    0.02886   -0.02696
C0AA  1    0.464121    0.683793    0.739997    20.25000    0.10517    0.05866 =
         0.04928   -0.03440    0.02886   -0.02696
C12   1    0.429775    0.680224    0.781333    20.25000    0.26928    0.13656 =
         0.12554   -0.10993    0.14305   -0.11153
C19   1    0.400210    0.638032    0.784594    20.25000    0.47740    0.25224 =
         0.30156   -0.23280    0.34759   -0.28375
C1    1    0.403677    0.601016    0.752327    20.25000    0.47740    0.25224 =
         0.30156   -0.23280    0.34759   -0.28375

PART 0
O0AA  2    0.386326    0.386326    0.613674    10.05556    0.21226    0.21226 =
         0.21226    0.02392    0.02392   -0.02392

PART 1
C3    1    0.463917    0.646156    0.703570    20.25000    0.10517    0.05866 =
         0.04928   -0.03440    0.02886   -0.02696
C17   1    0.481859    0.691432    0.733720    20.25000    0.10517    0.05866 =
         0.04928   -0.03440    0.02886   -0.02696
PART 0
O3    2   10.500000   10.550301   10.653001    10.03500    0.11990    0.10897 =
         0.02770   -0.04251    0.00000    0.00000
HKLF 4

REM  LP20-FC80_a.res in Fm-3m
REM R1 =  0.0323 for    1232 Fo > 4sig(Fo)  and  0.0338 for all    1314 data
REM     78 parameters refined using      0 restraints

END

WGHT      0.0505     32.3119

REM Highest difference peak  0.637,  deepest hole -0.498,  1-sigma level  0.063
Q1    1   0.4746  0.5000  0.5807  10.50000  0.05    0.64
Q2    1   0.4815  0.4815  0.5892  10.50000  0.05    0.63
Q3    1   0.5000  0.5234  0.6091  10.50000  0.05    0.37
Q4    1   0.5000  0.6391  0.6391  10.25000  0.05    0.31
Q5    1   0.5000  0.4895  0.6097  10.50000  0.05    0.28
Q6    1   0.3352  0.3352  0.6648  10.16667  0.05    0.26
Q7    1   0.5000  0.5162  0.9838  10.25000  0.05    0.24
Q8    1   0.5000  0.5651  0.6400  10.50000  0.05    0.23
Q9    1   0.4774  0.5893  0.6310  11.00000  0.05    0.22
Q10   1   0.4470  0.7100  0.7100  10.50000  0.05    0.21
Q11   1   0.4314  0.5686  0.6813  10.50000  0.05    0.21
Q12   1   0.4408  0.4408  0.5282  10.50000  0.05    0.21
Q13   1   0.4532  0.6067  0.6067  10.50000  0.05    0.21
Q14   1   0.4784  0.5748  0.6196  11.00000  0.05    0.19
Q15   1   0.4138  0.5862  0.7651  10.50000  0.05    0.19
Q16   1   0.5000  0.5615  0.6221  10.50000  0.05    0.19
Q17   1   0.5000  0.6518  0.6894  10.50000  0.05    0.19
Q18   1   0.5000  0.5000  0.7729  10.12500  0.05    0.18
Q19   1   0.5000  0.5672  0.6523  10.50000  0.05    0.18
Q20   1   0.5000  0.4814  0.5000  10.12500  0.05    0.17
;
_shelx_res_checksum              37710
_shelx_hkl_file                  
;
  -3   3   1  195.08   10.50
   3  -3   1  204.78   10.50
   1  -3   3  165.58   10.30
  -3   3  -1  197.78   10.50
  -1   3  -3  183.58   10.30
   4  -2   0   15.10    1.60
  -4   2   0   16.10    1.70
   4   0  -2   16.10    1.50
  -4   0   2   13.90    1.50
   4  -2   2  275.57   15.10
  -4   2   2  271.07   15.00
   2  -4   2  271.37   15.00
  -2   4  -2  297.47   15.00
  -4   2  -2  295.27   15.10
  -4   4   0 2074.09  107.89
   4  -4   4  158.98    8.70
  -4   4  -4  144.09    8.70
   5   1  -1 1586.14   82.09
  -5   1   1 1567.14   82.19
   5  -1   1 1589.54   82.19
   5  -1  -1 1597.14   82.19
  -5   1  -1 1550.34   82.19
  -5   1   3 3025.00  162.88
   5  -1  -3 3176.88  162.98
  -3   5  -1 3227.68  162.98
   3  -3   5 1552.94   75.89
  -5   3   3 1463.95   75.89
   5  -3   3 1368.86   75.89
   3  -5   3 1470.25   75.89
  -5   3  -3 1389.96   75.89
  -3   5  -3 1493.65   75.89
   1   5  -5 2254.37  119.09
  -5   5   1 2318.77  119.39
   5  -5   1 2326.97  119.39
   1  -5   5 2287.97  119.19
  -1   5  -5 2245.48  119.19
   5  -5   5 2464.55  127.59
  -5   5  -5 2431.96  127.59
  -6   2   0   23.60    2.20
   6  -2   0   19.20    2.40
  -6   4   0 1786.52   91.99
   0   6  -4 1766.02   91.79
   6  -4   0 1723.63   91.99
   6   0  -2   16.60    1.90
  -6   0   2   19.10    2.00
   6   2  -2  166.88    9.40
   6  -2   2  184.88    9.70
  -6   2   2  173.48    9.60
  -2   6  -2  173.98    9.60
   6  -2  -2  182.08    9.60
  -6   2  -2  166.78    9.70
  -6   4  -2 3959.00  205.28
   6   0  -4 1779.22   91.99
  -6   0   4 1826.32   91.99
  -4   6   0 1697.53   92.09
   0  -4   6 1744.23   91.79
   6   2  -4 3844.22  199.18
   6  -4   4 3080.69  165.48
  -6   4   4 3021.00  165.48
   4  -6   4 3194.58  165.48
  -4   6  -4 3262.77  165.48
  -6   4  -4 3385.56  165.58
  -6   0   6 1246.78   61.79
  -6   6   0 1082.69   61.99
   0  -6   6 1231.68   61.69
   0   6  -6 1147.39   61.69
   6  -6   2 3983.30  207.88
   2  -6   6 4254.37  207.78
  -6   6  -2 3780.62  207.88
  -7   3   1  197.68   10.70
   7  -3   1  193.08   10.70
   7  -3  -1  196.38   10.70
  -1   7  -3  193.78   10.50
  -7   3  -1  180.88   10.70
   1   7  -5 1939.81  104.29
  -7   5   1 2064.69  104.69
   7  -5   1 1996.90  104.69
   7  -5  -1 2004.20  104.69
  -7   5  -1 1958.90  104.69
  -1   7  -5 2097.09  104.49
   7   1  -3  185.08   10.40
   7  -1   3  196.08   10.70
  -7   1   3  197.58   10.50
   7  -1  -3  202.48   10.50
  -7  -1   3  182.58   10.40
  -3   7  -1  184.28   10.60
   7   3  -3    3.00    1.30
  -7   3   3    3.90    1.60
   7  -3   3    2.60    1.70
  -3   7  -3    5.80    1.70
  -7   3  -3    0.80    1.70
  -7   5   3 4250.67  215.98
   7  -5   3 4528.15  215.98
  -3   7  -5 3709.93  215.78
  -5   7   1 2046.00  106.79
  -7   1   5 2023.90  106.59
   1  -5   7 1933.31  106.49
  -5   7  -1 2034.60  106.79
  -7  -1   5 2084.19  106.49
  -1  -5   7 2182.58  106.39
   5  -7   3 4244.18  200.18
   7   3  -5 3279.97  199.78
  -7   3   5 4048.80  200.08
  -5   7  -5 7011.50  363.36
   1   7  -7  354.46   17.10
  -7   1   7  323.77   17.30
   1  -7   7  311.97   17.20
  -7   7   1  298.87   17.60
   7  -7   1  302.77   17.50
  -7   7  -1  343.07   17.70
  -7  -1   7  323.07   17.20
  -1   7  -7  330.87   17.30
   7  -7   3 2736.83  140.59
  -7   7   3 2630.54  140.59
   7  -3   7 2619.14  140.59
   3  -7   7 2823.02  140.49
  -7   7  -3 2570.44  140.59
  -3   7  -7 2834.52  140.39
   8  -2   0 3140.69  163.08
   0   8  -4  322.57   16.70
  -8   4   0  304.07   17.00
   8  -4   0  315.07   17.00
   8  -6   0  141.49    8.50
   0   8  -6  151.28    8.10
  -8   6   0  144.29    8.60
   8   0  -2 3269.77  171.08
   8   0   2 3323.57  171.18
   8  -2   2 2564.24  131.89
  -8   2   2 2584.24  131.79
   8  -2  -2 2438.16  131.79
   8  -4   2  432.96   23.20
  -8   4   2  429.46   23.10
   8  -4  -2  418.66   23.10
  -2   8  -4  452.35   23.00
  -8   4  -2  411.46   23.10
   2  -8   6  760.22   39.40
   8  -6   2  765.02   39.70
   2   8  -6  743.83   39.20
  -8   6   2  773.32   39.70
  -8   6  -2  738.13   39.70
  -6  -2   8  748.23   39.10
  -2   8  -6  724.33   39.40
   8   0  -4  319.17   17.10
  -8   0   4  318.67   17.10
   8   2  -4  449.16   23.80
  -8   2   4  463.25   24.00
   8  -2   4  443.66   24.10
   8  -2  -4  446.16   24.00
  -4   8  -2  437.26   24.00
   8   4  -4  725.73   37.10
   8  -4   4  728.43   37.50
   4  -4   8  706.13   37.30
   4  -8   4  706.03   37.30
  -8   4   4  676.13   37.30
  -4   8  -4  702.33   37.30
   6  -4   8 4099.69  227.48
  -8   6   4 4371.06  227.58
  -8   6  -4 4686.03  227.68
   0  -6   8  152.28    8.10
  -8   0   6  149.88    8.20
  -6   8   0  136.49    8.50
   8   2  -6  775.82   37.90
  -6   8   2  746.23   38.20
   2  -6   8  715.93   37.90
  -8   2   6  731.13   38.00
  -8  -2   6  748.83   37.80
  -6   8  -2  614.24   38.10
   6  -8   4 4428.86  235.78
   4  -6   8 4970.60  235.78
  -6   8  -4 4237.08  235.78
  -8   0   8 1881.61  103.19
  -8   8   0 1946.41  103.59
   0   8  -8 2130.79  103.19
   2   8  -8   -2.90    0.80
  -8   2   8   -2.90    1.30
   2  -8   8   -2.50    1.20
  -8   8   2   -4.60    1.60
   8  -8   2   -5.00    1.60
  -8   8  -2   -3.00    1.60
  -8  -2   8   -2.90    0.90
  -2   8  -8   -3.20    1.20
   8  -8   4 1859.61   99.29
  -8   8   4 1869.01   99.29
   8  -4   8 1868.11   99.29
   4  -8   8 1951.50   99.19
  -8   8  -4 1938.61   99.29
  -4   8  -8 1916.41   99.09
   8  -8   8 2601.44  135.59
   9  -3   1  560.04   30.00
  -9   3   1  548.05   30.00
   9  -3  -1  559.44   30.00
  -9   3  -1  588.94   30.00
   9  -5   1  134.59    7.60
   1   9  -5  119.69    7.00
  -9   5   1  123.49    7.50
  -1   9  -5  121.69    7.10
  -9   5  -1  125.09    7.50
   9  -5  -1  126.69    7.50
   1   9  -7  628.04   31.40
   9  -7   1  583.34   31.80
  -9   7  -1  578.24   31.80
  -1   9  -7  601.84   31.50
  -7  -1   9  595.94   31.40
   9  -1   3  565.74   29.50
   9   1  -3  540.65   29.30
  -9   1   3  542.65   29.40
   9  -1  -3  569.84   29.40
   9   3  -3  150.68    8.90
  -9   3   3  152.78    9.10
   9  -3   3  158.88    9.20
   9  -3  -3  153.38    9.10
  -3   9  -3  159.78    9.10
  -9   5   3  436.26   23.30
   9  -5   3  438.36   23.30
  -9   5  -3  407.56   23.20
  -3   9  -5  450.95   23.20
   9  -7   3  107.39    6.90
   3   9  -7  111.79    6.10
  -9   7   3  109.79    6.90
   3  -9   7  113.89    6.60
  -7  -3   9  110.09    6.10
  -9   7  -3  101.29    6.90
  -3   9  -7  104.59    6.60
  -9   1   5  128.89    7.20
   9   1  -5  120.19    7.10
   1  -5   9  127.59    7.00
   9  -1  -5  122.49    7.20
  -9  -1   5  122.39    7.10
  -5   9  -1  127.69    7.40
  -1  -5   9  117.49    6.80
  -9   3   5  443.16   23.40
   9  -3   5  410.86   23.50
   9   3  -5  431.26   23.10
   3  -5   9  466.55   23.30
  -5   9  -3  434.16   23.40
  -9   5   5 1638.74   89.59
   9   5  -5 1716.33   89.29
   5  -9   5 1692.23   89.59
   5  -5   9 1815.32   89.59
   9  -5   5 1745.53   89.69
  -5   9  -5 1692.83   89.59
   5  -9   7 4355.56  212.38
  -9   7   5 3988.40  212.38
   7  -5   9 4187.78  212.48
  -9   7  -5 3960.80  212.48
  -5   9  -7 3961.60  212.38
  -7   9   1  585.54   31.90
   1  -7   9  618.04   31.60
  -9   1   7  600.64   31.70
  -1  -7   9  589.74   31.40
  -9  -1   7  587.94   31.60
  -7   9  -1  617.14   32.00
  -9   3   7  103.59    6.50
   9   3  -7  107.69    6.10
   3  -7   9  103.49    6.30
  -7   9   3   92.19    6.60
   9  -3   7  107.29    6.80
   7  -9   3  109.99    6.70
  -7   9  -3  108.79    6.80
   9  -5   7 4280.77  219.28
   7  -9   5 4227.18  219.18
  -9   5   7 4156.98  219.18
  -9   7   7 4709.93  245.18
   9  -7   7 4863.31  245.18
   7  -9   7 4881.11  245.18
   7  -7   9 4778.02  245.18
  -7   9  -7 4376.66  245.08
  -9   3   9 4065.29  206.08
   9  -9   3 3860.01  206.18
  -9   9   3 4014.20  206.28
  -9   9  -3 3932.41  206.28
   9  -5   9    1.30    1.70
  -9   9   5    3.20    1.90
   5  -9   9    1.60    1.40
   9  -9   5    1.80    1.80
  -9   9  -5    0.50    1.70
   9  -7   9  162.58    9.30
   9  -9   7  154.38    9.20
  -9   9  -7  141.09    9.20
   9  -9   9 2544.35  132.69
  10  -2   0 3690.43  191.58
  10  -4   0    8.10    1.80
 -10   4   0   11.00    2.00
  10  -6   0    1.20    1.60
 -10   6   0   -0.70    1.70
   0  10  -6    3.10    1.20
  10  -8   0 9999.00  518.05
  10   0   2 3595.84  190.38
  10   0  -2 3737.03  190.28
 -10   2   2 2504.95  123.59
  10   2  -2 2398.36  123.49
  10  -2   2 2177.08  123.59
  10  -2  -2 2424.36  123.59
 -10   4   2   47.10    3.80
  10  -4   2   46.00    3.80
  10  -4  -2   49.60    3.80
  -2  10  -4   49.70    3.60
 -10   4  -2   46.80    3.90
   2  10  -6  474.25   25.40
 -10   6   2  483.25   25.90
  10  -6   2  470.15   25.90
 -10   6  -2  497.05   25.90
  10  -6  -2  460.65   25.80
  -2  10  -6  505.85   25.70
  10  -8   2 7132.89  369.86
  10   0  -4    9.30    1.60
 -10   0   4   11.00    1.70
  10   2  -4   52.69    3.60
 -10   2   4   50.79    3.80
  10  -2   4   47.80    4.00
  10  -2  -4   49.60    3.80
  -4  10  -2   50.19    3.90
  10  -4   4    5.30    1.70
 -10   4   4    4.50    1.70
  10   4  -4    3.70    1.20
  -4  10  -4    4.40    1.50
 -10   6   4  603.14   32.20
  10  -6   4  603.54   32.20
 -10   6  -4  578.64   32.20
  -4  10  -6  624.04   32.10
 -10   8   4  886.81   48.50
   8  -4  10 1018.30   48.60
  10  -8   4  916.71   48.60
   4 -10   8  928.61   48.30
   4  10  -8  875.11   47.90
  -4  10  -8  865.11   48.30
  -8  -4  10  930.81   47.80
 -10   8  -4  935.41   48.60
 -10   0   6    0.90    1.30
   0  -6  10    1.80    1.00
  10   0  -6    1.90    1.40
  -6  10   0    1.20    1.70
   2  -6  10  456.55   24.90
 -10   2   6  480.05   25.10
  10  -2   6  444.76   25.20
  10   2  -6  473.95   24.90
  -6  10  -2  460.55   25.20
  -2  -6  10  504.45   24.60
 -10  -2   6  460.65   24.90
  10  -4   6  599.94   33.10
 -10   4   6  613.04   33.00
  10   4  -6  603.64   32.60
   4  -6  10  668.33   32.90
  -6  10  -4  611.34   33.00
 -10   6   6 1576.84   80.49
  10  -6   6 1623.04   80.49
  10   6  -6 1432.46   79.99
   6 -10   6 1533.85   80.39
   6  -6  10 1437.26   80.29
  -6  10  -6 1610.24   80.49
   6 -10   8  213.28   12.20
   6  10  -8  210.98   11.40
  10  -8   6  191.88   12.30
   8  -6  10  222.78   12.30
 -10   8   6  223.18   12.30
  -6  10  -8  229.58   12.30
 -10   8  -6  219.08   12.40
  -8  10   2 7355.06  381.36
  10  -4   8  902.01   48.60
   8 -10   4  948.91   48.60
  -8  10   4  863.81   48.60
   4  -8  10  947.11   48.40
 -10   4   8  939.61   48.50
  -8  10  -4  920.11   48.60
 -10   6   8  209.08   12.30
  10   6  -8  231.08   11.60
   6  -8  10  205.08   12.20
   8 -10   6  210.68   12.30
  10  -6   8  206.58   12.40
  -8  10  -6  233.58   12.40
 -10   8   8  312.27   17.70
  10   8  -8  338.07   16.90
   8 -10   8  318.07   17.70
   8  -8  10  349.07   17.80
  10  -8   8  294.47   17.70
  -8  10  -8  299.97   17.60
  10 -10   2 7501.95  417.06
 -10  10  -2 8589.14  417.26
 -10   4  10 2585.14  131.49
  10  -4  10 2574.64  131.69
 -10  10   4 2482.85  131.59
   4 -10  10 2614.74  131.39
  10 -10   4 2484.15  131.59
 -10  10  -4 2407.26  131.59
  10  -6  10  573.64   34.50
 -10  10   6  641.94   34.60
   6 -10  10  681.93   34.50
  10 -10   6  686.63   34.70
 -10  10  -6  648.44   34.70
  10  10  -8 2745.73  147.79
   8 -10  10 3015.30  148.59
  10 -10   8 3018.30  148.59
  10  -8  10 2862.11  148.59
 -10  10  -8 2614.04  148.49
  10 -10  10 4966.20  258.17
  11   1  -1 4775.82  246.98
  11  -1  -1 4725.43  246.98
  11   1   1 4775.12  247.08
  11  -3   1  529.45   29.20
  11   3  -1  544.75   29.20
 -11   3   1  528.75   29.20
  11  -3  -1  591.94   29.30
 -11   3  -1  550.04   29.30
  11  -5   1    0.80    1.80
 -11   5   1    0.00    1.70
  11  -5  -1    0.50    1.70
  -1  11  -5   -0.90    1.30
 -11   5  -1   -1.60    1.60
 -11   7   1 5329.17  266.87
  11  -7   1 5047.90  266.77
  11  -7  -1 5042.70  266.77
  -1  11  -9 6695.13  346.97
 -11   1   3  551.14   29.30
  11  -1   3  581.04   29.50
  11   1  -3  523.65   29.20
  11  -1  -3  550.14   29.30
  11   3  -3  488.05   25.70
  11  -3   3  441.36   25.80
 -11   3   3  498.35   25.80
  -3  11  -3  489.25   25.70
  11  -3  -3  487.95   25.80
  11  -5   3   86.69    5.70
 -11   5   3   79.79    5.60
  11   5  -3   83.99    5.30
  -3  11  -5   86.39    5.50
 -11   5  -3   79.19    5.70
  11  -5  -3   81.99    5.60
  11  -7   3 1745.83   92.19
   3  11  -7 1821.62   91.59
  -3  11  -7 1819.72   91.99
 -11   7  -3 1710.83   92.19
  -7  -3  11 1716.13   91.49
  11  -9   3 3884.31  203.58
 -11   9   3 3918.51  203.58
   3  11  -9 3782.92  202.88
  -9  -3  11 4263.77  202.98
 -11   9  -3 3658.93  203.48
  -3  11  -9 3983.20  203.28
 -11   1   5   -1.10    1.30
  11  -1   5   -0.20    1.70
  11   1  -5   -0.30    1.30
  -5  11  -1   -1.70    1.50
  11  -1  -5   -1.10    1.40
 -11  -1   5   -1.40    1.30
  11   3  -5   76.69    5.00
 -11   3   5   81.19    5.30
  11  -3   5   78.09    5.50
   3  -5  11   78.09    5.20
  -5  11  -3   85.49    5.40
  11  -5   5  553.84   30.20
  11   5  -5  560.54   29.80
   5  -5  11  568.74   30.00
  -5  11  -5  552.64   30.10
  11  -7   5   23.70    3.00
  11   7  -5   18.30    2.40
 -11   7   5   18.80    2.70
   5 -11   7   21.80    2.60
   7  -5  11   24.80    2.90
  -5  11  -7   19.00    2.60
 -11   7  -5   17.00    2.60
 -11   9   5  579.54   31.80
  11  -9   5  620.84   31.90
   5  11  -9  609.04   30.90
   5 -11   9  622.44   31.60
   9  -5  11  604.14   31.80
  -5  11  -9  530.35   31.50
 -11   9  -5  580.24   31.80
  -7  11   1 4546.15  255.07
   1  -7  11 5080.79  254.77
  -7  11  -1 5117.09  255.17
   3  -7  11 1861.41   89.69
  11   3  -7 1768.82   89.49
  11  -3   7 1701.43   89.89
  -7  11  -3 1545.55   89.89
   5  -7  11   18.90    2.50
 -11   5   7   22.00    2.70
  11  -5   7   24.30    2.90
  11   5  -7   19.40    2.20
  -7  11  -5   23.20    2.80
  11  -7   7   87.69    6.10
   7  -7  11   89.49    6.00
   7 -11   7   94.49    6.00
  11   7  -7   84.09    5.20
 -11   7   7   88.09    6.00
  -7  11  -7   88.29    6.00
  11  -9   7  802.02   44.10
  11   9  -7  847.62   43.40
 -11   9   7  811.82   44.00
   7 -11   9  782.82   43.90
   9  -7  11  805.32   44.00
   7  11  -9  866.81   43.10
 -11   9  -7  832.42   44.10
  -7  11  -9  887.31   44.10
  -9  11  -1 6515.05  338.07
  -9  11   3 3826.92  206.18
 -11   3   9 3939.51  206.08
   3  -9  11 4119.59  206.08
  11  -3   9 4128.19  206.38
  -9  11  -3 3827.32  206.28
   9 -11   5  600.84   32.10
  11  -5   9  639.74   32.30
   5  -9  11  600.04   32.00
 -11   5   9  583.64   32.00
  -9  11   5  572.34   32.10
  -9  11  -5  600.54   32.20
  11   7  -9  805.92   41.40
 -11   7   9  772.72   42.10
  11  -7   9  781.12   42.20
   7  -9  11  847.52   42.10
   9 -11   7  820.32   42.20
  -9  11  -7  730.43   42.10
 -11   9   9 3478.35  183.58
  11  -9   9 3689.93  183.78
   9 -11   9 3439.26  183.58
   9  -9  11 3463.35  183.58
   9  11  -9 3699.23  182.68
  -9  11  -9 3395.06  183.58
   3 -11  11 3510.85  180.88
 -11   3  11 3563.54  181.08
  11 -11   3 3400.56  181.18
 -11  11   3 3270.67  181.18
 -11  -3  11 3457.25  180.68
 -11  11  -3 3693.13  181.38
 -11   5  11 1288.27   64.89
  11  -5  11 1207.68   64.99
 -11  11   5 1211.98   64.99
   5 -11  11 1282.27   64.79
  11 -11   5 1226.18   64.99
 -11  11  -5 1176.18   64.99
 -11   7  11 2316.87  117.99
  11  -7  11 2335.87  118.19
 -11  11   7 2188.18  118.09
   7 -11  11 2301.67  117.99
  11 -11   7 2241.58  118.09
 -11  11  -7 2171.68  118.09
 -11  11   9 3822.42  208.68
   9 -11  11 3909.11  208.68
  11 -11   9 3972.60  208.78
  11  -9  11 4345.57  208.88
  11 -11  11 5007.50  260.27
  12   2   0 2344.67  121.39
  12  -2   0 2318.77  121.49
  12  -4   0  249.58   13.40
 -12   4   0  222.88   13.20
 -12   6   0 1406.66   73.79
   0  12  -6 1442.66   73.49
  12  -6   0 1366.26   73.69
  12  -8   0 6240.08  317.57
 -12   8   0 5998.70  317.47
   0  12 -10 6497.05  336.77
  12   0  -2 2300.97  123.49
  12   0   2 2446.86  123.69
  12  -2   2  361.46   20.40
  12   2  -2  372.26   20.30
 -12   2   2  371.16   20.40
  12  -2  -2  397.56   20.50
  12  -4   2   10.70    2.20
 -12   4   2   14.40    2.30
  12   4  -2   13.90    2.10
 -12   4  -2   13.70    2.40
  12  -4  -2   13.40    2.20
  -2  12  -4   12.80    2.00
 -12   6   2  524.75   27.80
   2  12  -6  511.65   27.30
  12  -6   2  493.95   27.70
  12  -6  -2  494.25   27.70
 -12   6  -2  498.45   27.80
  -2  12  -6  574.24   27.60
 -12   8   2 2174.18  111.39
  12  -8   2 2062.49  111.39
   2  12  -8 1822.42  110.89
  -2  12  -8 2421.66  111.19
 -12   8  -2 2015.40  111.39
  -8  -2  12 2300.37  110.89
  12 -10   2 4635.54  248.38
 -10   2  12 4705.33  248.08
  -2  12 -10 4860.31  248.08
 -10  -2  12 4932.71  247.88
 -12  10  -2 4770.02  248.38
  12   0   4  271.97   14.50
  12   0  -4  255.97   14.20
 -12   0   4  242.78   14.10
  12   2  -4   12.10    1.80
 -12   2   4   13.10    2.00
  12  -2   4   12.50    2.20
  12  -2  -4   14.20    2.10
  -4  12  -2   11.90    2.10
  12  -4   4   34.60    3.60
 -12   4   4   36.50    3.50
  12   4  -4   34.90    3.10
  12  -4  -4   36.40    3.50
  -4  12  -4   33.70    3.30
  12   6  -4  131.69    8.10
  12  -6   4  145.29    8.60
 -12   6   4  145.79    8.50
 -12   6  -4  129.69    8.50
  -4  12  -6  143.39    8.40
   4  12  -8  154.58    8.50
 -12   8   4  167.18    9.50
  12  -8   4  155.08    9.40
  -4  12  -8  151.98    9.10
 -12   8  -4  153.48    9.40
  -8  -4  12  149.19    8.30
   4  12 -10 1295.77   65.09
   4 -12  10 1246.78   65.69
 -12  10   4 1232.78   65.89
  12 -10   4 1209.78   65.89
  10  -4  12 1233.58   65.89
 -10  -4  12 1399.56   65.19
 -12  10  -4 1122.89   65.89
  -4  12 -10 1269.77   65.69
   0  -6  12 1649.13   75.99
  -6  12   0 1359.06   76.29
  12   0  -6 1396.06   76.19
 -12   0   6 1419.26   76.19
 -12   2   6  505.55   27.60
   2  -6  12  539.35   27.50
  12   2  -6  546.15   27.50
  12  -2   6  495.45   27.80
  -2  -6  12  517.05   27.10
  -6  12  -2  497.35   27.70
 -12   4   6  141.49    8.40
   4  -6  12  142.09    8.20
  12   4  -6  148.69    8.10
  12  -4   6  118.69    8.40
 -12   6   6    4.70    2.00
  12  -6   6    5.90    2.10
  12   6  -6    5.40    1.40
   6  -6  12    3.80    1.80
  -6  12  -6    5.30    1.90
  12  -8   6   -3.50    1.80
   8  -6  12    0.90    1.70
  12   8  -6    2.20    1.20
   6 -12   8    2.50    1.60
 -12   8   6    0.90    1.80
 -12   8  -6   -0.90    1.80
  -6  12  -8   -1.20    1.70
  12 -10   6  773.82   41.10
  10  -6  12  783.22   41.10
 -12  10   6  772.52   41.10
   6  12 -10  778.62   40.00
   6 -12  10  796.32   41.00
  -6  12 -10  704.03   40.90
 -12  10  -6  784.92   41.20
  -8  12   0 5991.40  304.27
   0  -8  12 5736.53  303.77
 -12   2   8 2276.87  116.39
  -8  12   2 2015.60  116.49
  12  -2   8 2215.38  116.59
   2  -8  12 2287.77  116.19
  -8  12  -2 2263.77  116.59
 -12  -2   8 2225.28  116.19
  -2  -8  12 2343.87  115.89
 -12   4   8  165.08    9.40
   4  -8  12  147.99    9.10
  12  -4   8  156.58    9.50
  12   4  -8  162.68    8.90
  -8  12  -4  156.88    9.50
   6  -8  12    1.10    1.60
  12   6  -8    0.70    1.10
  12  -6   8    3.10    1.90
   8 -12   6    1.50    1.70
 -12   6   8    0.80    1.60
  -8  12  -6    0.70    1.80
  12   8  -8  276.17   14.10
  12  -8   8  249.08   14.80
   8 -12   8  261.97   14.80
 -12   8   8  246.78   14.70
   8  -8  12  248.98   14.70
  -8  12  -8  277.77   14.90
   8 -12  10 2016.50  103.69
 -12  10   8 1841.82  103.69
  12 -10   8 1948.61  103.79
  10  -8  12 2243.78  103.89
  12  10  -8 1962.30  103.09
  -8  12 -10 1887.11  103.69
 -10  12   0 7561.04  392.26
   2 -10  12 4843.12  240.08
 -12   2  10 4273.87  240.18
 -10  12   2 4643.34  240.48
 -12  -2  10 4708.23  239.98
 -10  12  -2 4669.23  240.48
  12  -4  10 1213.98   63.39
 -10  12   4 1164.08   63.29
   4 -10  12 1232.28   63.09
 -12   4  10 1235.08   63.19
 -10  12  -4 1167.98   63.39
 -10  12   6  752.72   40.50
  10 -12   6  764.42   40.50
  12  -6  10  702.63   40.50
 -12   6  10  783.52   40.50
 -10  12  -6  795.72   40.60
  12  -8  10 1843.02  100.59
  10 -12   8 1910.71  100.59
 -12   8  10 1831.42  100.49
   8 -10  12 2086.89  100.69
 -10  12  -8 1935.51  100.59
 -12  10  10 3468.35  183.78
  10 -12  10 3497.35  183.78
  10 -10  12 3625.84  183.88
 -12   0  12 6315.47  316.17
 -12  12   0 5874.71  316.47
 -12  12   2 2967.70  153.58
 -12   2  12 3224.18  153.38
 -12  12  -2 2929.41  153.58
 -12  -2  12 2664.63  152.98
 -12   4  12  552.74   30.10
  12  -4  12  569.44   30.30
 -12  12   4  517.75   30.20
   4 -12  12  559.14   29.90
  12 -12   4  564.14   30.30
 -12  12  -4  596.54   30.40
 -12   6  12  798.62   41.20
  12  -6  12  779.12   41.30
 -12  12   6  792.32   41.30
   6 -12  12  805.62   41.10
  12 -12   6  737.43   41.20
 -12  12  -6  719.43   41.20
 -12   8  12 1854.81   92.49
  12  -8  12 1734.73   92.49
 -12  12   8 1632.54   92.39
   8 -12  12 1766.02   92.39
  12 -12   8 1781.72   92.49
 -12  12  -8 1811.32   92.59
 -12  10  12 1712.43   87.59
 -12  12  10 1671.43   87.49
  10 -12  12 1627.94   87.49
  12 -12  10 1653.33   87.49
  12 -10  12 1705.23   87.59
  12  12 -10 1626.94   86.39
  12 -12  12 1345.37   71.09
  13   1  -1 5924.51  299.47
  13  -1  -1 5983.40  299.57
  13   1   1 5413.76  299.47
  13  -3   1   59.49    4.50
  13   3  -1   59.79    4.50
 -13   3   1   57.99    4.50
  13  -3  -1   56.29    4.70
 -13   5   1  100.79    6.30
  13  -5   1   95.09    6.30
  13  -5  -1   86.89    6.10
  -1  13  -5   84.59    5.80
 -13   5  -1   95.69    6.30
 -13   7   1 1175.88   66.79
   1  13  -7 1304.67   66.49
  13  -7   1 1276.77   66.89
 -13   7  -1 1195.28   66.79
  13  -7  -1 1274.97   66.89
  -1  13  -7 1400.56   66.69
 -13   9   1 3501.45  182.08
  13  -9   1 3528.05  181.98
   1  13  -9 3575.74  181.58
  -1  13  -9 3641.44  181.68
 -13   9  -1 3237.88  181.98
 -11   1  13 4517.15  214.78
 -13  11   1 4248.27  215.08
   1  13 -11 4002.00  214.48
 -13  11  -1 3770.42  214.98
  13  -1   3   59.79    4.60
  13   1  -3   57.09    4.40
 -13   1   3   58.79    4.50
  13   1   3   55.89    4.60
  13  -1  -3   59.59    4.50
  13  -3   3 1286.67   68.79
  13   3  -3 1330.57   68.59
 -13   3   3 1321.97   68.79
  -3  13  -3 1324.67   68.69
  13  -3  -3 1277.67   68.69
  13   5  -3  527.05   28.70
 -13   5   3  554.94   28.90
  13  -5   3  516.95   28.90
  13  -5  -3  512.85   28.80
  -3  13  -5  576.74   28.80
   3  13  -7  245.18   13.20
  13  -7   3  232.48   13.70
 -13   7   3  230.78   13.70
  -3  13  -7  252.07   13.60
 -13   7  -3  239.08   13.80
 -13   9   3  555.84   29.30
   3  13  -9  570.44   28.60
  13  -9   3  516.85   29.20
  -3  13  -9  520.55   28.90
 -13   9  -3  501.85   29.20
  -9  -3  13  574.14   28.50
   3  13 -11  846.52   47.10
 -11   3  13  890.71   47.60
  13 -11   3  866.91   47.80
 -11  -3  13  974.30   47.20
 -13  11  -3  856.41   47.90
  -3  13 -11  971.90   47.60
  13   1  -5   94.39    5.90
 -13   1   5   91.69    5.90
  13  -1   5   88.79    6.20
  13  -1  -5   95.39    6.00
  -5  13  -1   86.79    6.10
  13   3  -5  537.65   28.90
  13  -3   5  557.44   29.30
 -13   3   5  552.04   29.20
  -5  13  -3  540.35   29.10
  13  -3  -5  532.95   29.10
  13  -5   5  634.04   33.70
 -13   5   5  617.64   33.60
  13   5  -5  637.64   33.40
  13  -7   5 1045.20   56.59
  13   7  -5 1095.99   56.09
 -13   7   5 1043.90   56.49
   7  -5  13 1078.19   56.39
  -5  13  -7 1086.69   56.39
 -13   9   5    1.50    1.90
  13  -9   5   -0.20    1.80
   9  -5  13    0.60    1.90
   5  13  -9    1.20    1.00
  -5  13  -9    0.30    1.70
 -13   9  -5   -0.20    2.10
   5 -13  11  211.28   11.60
 -13  11   5  196.38   11.80
 -11   5  13  204.48   11.70
  13 -11   5  186.78   11.80
  11  -5  13  198.78   11.90
  -5  13 -11  203.48   11.70
 -13  11  -5  199.58   12.00
   1  -7  13 1424.96   67.89
  13  -1   7 1238.78   68.29
  13   1  -7 1314.57   67.99
 -13   1   7 1281.57   68.09
  -7  13   1 1248.68   68.19
  -1  -7  13 1415.46   67.69
  -7  13  -1 1247.08   68.19
 -13  -1   7 1218.98   67.99
  13   3  -7  255.77   13.70
  13  -3   7  230.48   14.10
   3  -7  13  243.78   13.70
 -13   3   7  249.28   13.90
  -7  13  -3  250.77   14.10
   5  -7  13 1107.09   57.79
  13   5  -7 1091.19   57.49
 -13   5   7 1101.39   57.89
  13  -5   7 1057.69   57.89
  -7  13  -5 1134.19   57.89
  13   7  -7  975.10   49.90
  13  -7   7  946.81   50.49
 -13   7   7  951.70   50.39
   7  -7  13  961.30   50.39
  -7  13  -7  925.11   50.39
  13   9  -7   10.20    1.60
   9  -7  13    7.80    2.20
  13  -9   7    9.30    2.50
   7  13  -9    7.70    1.20
 -13   9   7    8.70    2.30
   7 -13   9    7.20    2.10
  -7  13  -9    7.50    2.20
   7 -13  11  513.35   28.40
 -13  11   7  524.85   28.60
  13 -11   7  543.25   28.60
 -13  11  -7  522.95   28.60
  -9  13   1 3168.08  181.68
 -13   1   9 3567.74  181.58
   1  -9  13 3789.72  181.38
  -1  -9  13 3515.25  181.18
 -13  -1   9 3533.25  181.48
  -9  13  -1 3382.86  181.78
 -13   3   9  600.94   30.00
   3  -9  13  562.74   29.70
  13  -3   9  547.45   30.20
  -9  13   3  525.05   30.00
  -9  13  -3  551.54   30.10
  -9  13   5    1.60    1.90
   5  -9  13   -0.70    1.60
  13  -5   9    0.00    2.00
  13   5  -9    0.40    1.20
 -13   5   9    0.50    1.70
  -9  13  -5   -0.60    1.90
   9 -13   7    8.80    2.30
  13  -7   9   12.20    2.50
  13   7  -9    7.70    1.40
   7  -9  13    9.00    2.20
 -13   7   9    9.20    2.30
  -9  13  -7    7.20    2.30
   9 -13   9  888.91   47.60
  13  -9   9  903.91   47.80
 -13   9   9  861.11   47.60
   9  -9  13  942.41   47.70
  13   9  -9  917.21   46.90
  -9  13  -9  862.81   47.60
   9 -13  11 1116.49   59.39
  13  11  -9 1109.09   58.59
  13 -11   9 1141.49   59.59
  11  -9  13 1145.89   59.49
 -13  11   9 1107.89   59.49
 -11  13   1 4237.48  226.98
 -13   1  11 4500.35  226.78
 -13  -1  11 4482.65  226.58
 -11  13  -1 4242.48  226.98
 -13   3  11  898.11   44.80
 -11  13   3  827.52   44.90
  13  -3  11  790.62   44.90
   3 -11  13  888.81   44.60
 -11  13  -3  817.12   44.90
   5 -11  13  186.18   11.20
  13  -5  11  200.88   11.70
 -13   5  11  198.88   11.40
 -11  13   5  187.38   11.50
 -11  13  -5  198.18   11.60
  11 -13   7  509.25   29.20
 -11  13   7  527.05   29.30
  13  -7  11  554.34   29.40
 -13   7  11  544.05   29.30
   7 -11  13  575.84   29.30
 -11  13  -7  532.55   29.30
 -13   9  11 1044.00   55.69
  13  -9  11 1053.29   55.69
   9 -11  13  956.40   55.59
  11 -13   9 1126.49   55.79
 -11  13  -9 1073.99   55.79
 -13  11  11  923.71   50.29
  11 -13  11  922.51   50.29
  13 -11  11  989.00   50.49
 -13  13   1 2245.48  119.59
 -13   1  13 2369.16  119.29
 -13  13  -1 2237.28  119.49
 -13  -1  13 2292.37  119.09
  13  -3  13   84.29    6.30
 -13   3  13   81.09    5.80
 -13  13   3   78.09    6.10
 -13  13  -3   75.39    6.20
 -13  -3  13   85.89    5.20
 -13   5  13    0.20    1.80
  13  -5  13    1.50    2.10
 -13  13   5    0.30    2.00
   5 -13  13    1.30    1.70
  13 -13   5   -1.00    2.10
 -13  13  -5    0.80    2.20
 -13   7  13  155.18    9.80
  13  -7  13  169.28   10.20
 -13  13   7  163.68   10.00
   7 -13  13  151.18    9.70
  13 -13   7  150.38    9.90
 -13  13  -7  166.68   10.10
 -13   9  13  536.05   28.60
  13  -9  13  504.05   28.70
 -13  13   9  525.55   28.60
   9 -13  13  524.15   28.50
  13 -13   9  513.65   28.60
  13  13  -9  537.45   27.70
 -13  13  -9  525.85   28.70
 -13  11  13  356.96   19.40
 -13  13  11  349.07   19.30
  11 -13  13  342.27   19.30
  13 -13  11  348.57   19.30
  13 -11  13  302.87   19.30
 -13  13  13 1286.87   65.69
  13 -13  13 1190.68   65.59
  14  -2   0 2545.15  134.49
  14   2   0 2617.84  134.49
  14  -4   0  337.07   19.10
  14   4   0  355.06   19.00
 -14   4   0  347.27   19.10
 -14   6   0   13.60    2.50
  14  -6   0   15.60    2.70
   0  14  -6   13.50    2.10
  14  -8   0 1273.07   67.29
   0  14  -8 1108.09   66.79
 -14   8   0 1456.75   67.39
 -10   0  14 3101.19  149.49
 -14  10   0 2891.81  149.88
   0  14 -10 2629.64  149.39
 -14  12   0 2557.74  132.89
 -12   0  14 2531.15  132.49
  14   0  -2 2504.35  131.09
  14   0   2 2529.85  131.19
 -14   2   2  165.88    9.70
  14  -2   2  152.68    9.70
  14   2  -2  163.48    9.60
  14   2   2  165.98    9.80
  14  -2  -2  158.78    9.80
  14  -4   2 1516.75   80.79
 -14   4   2 1557.14   80.79
  14   4  -2 1573.64   80.59
  14  -4  -2 1587.94   80.79
  -2  14  -4 1464.85   80.49
  14  -6   2  311.37   17.80
 -14   6   2  303.37   17.70
 -14   6  -2  313.97   17.80
  -2  14  -6  343.17   17.50
  14  -6  -2  318.77   17.70
 -14   8   2   55.49    4.80
   2  14  -8   59.19    4.00
  14  -8   2   53.49    4.70
 -14   8  -2   47.20    4.80
  -2  14  -8   56.89    4.40
 -14  10   2  869.51   45.10
   2  14 -10  889.91   44.40
  14 -10   2  822.72   45.00
  -2  14 -10  852.81   44.70
 -10  -2  14  916.51   44.40
 -14  10  -2  717.43   44.90
 -14  12   2  665.83   35.40
 -12   2  14  663.93   35.00
 -14  12  -2  637.04   35.30
 -12  -2  14  656.23   34.60
  14   0  -4  362.26   19.40
  14   0   4  348.07   19.60
  14   2  -4 1621.14   81.09
 -14   2   4 1519.35   81.19
  14  -2   4 1566.04   81.29
  14  -2  -4 1555.94   81.19
  -4  14  -2 1488.25   81.19
 -14   4   4 3488.65  180.48
  14   4  -4 3427.86  180.28
  14  -4   4 3480.35  180.58
  14  -4  -4 3488.95  180.48
  -4  14  -4 3464.75  180.48
  14  -6   4 3946.71  201.98
  14   6  -4 3903.61  201.68
 -14   6   4 3799.52  201.88
 -14   8   4  804.62   43.00
  14  -8   4  795.72   43.00
   4  14  -8  802.52   42.40
  -4  14  -8  800.32   42.80
 -14   8  -4  817.82   43.00
  -8  -4  14  817.92   42.10
 -14  10   4   14.80    2.80
   4  14 -10   15.40    1.70
  14 -10   4   11.60    2.60
 -10  -4  14   13.50    1.70
  -4  14 -10   16.00    2.50
 -14  10  -4   13.50    2.70
 -12   4  14   33.40    3.80
  14 -12   4   36.10    3.90
 -14  12   4   25.70    3.70
  12  -4  14   30.10    3.70
 -14  12  -4   41.90    4.20
  14   0   6   15.30    2.50
 -14   0   6   14.50    2.20
  14   0  -6   13.50    2.20
  -6  14   0   11.20    2.20
   0  -6  14   16.40    1.90
   2  -6  14  332.67   18.00
  14   2  -6  343.37   18.00
 -14   2   6  318.87   18.10
  14  -2   6  298.87   18.30
  -6  14  -2  320.07   18.20
  14  -2  -6  334.57   18.20
  -2  -6  14  356.86   17.60
  14  -4   6 3658.63  197.08
  14   4  -6 4041.00  196.78
   4  -6  14 3578.64  196.78
 -14   4   6 3784.62  196.98
  -6  14  -4 3878.01  196.98
  14   6  -6 4213.98  225.08
 -14   6   6 4395.16  225.48
  14  -6   6 4135.69  225.38
   6  -6  14 4505.65  225.38
  -6  14  -6 4434.46  225.38
   8  -6  14 2352.16  120.69
  14   8  -6 2246.48  120.29
  -6  14  -8 2333.67  120.69
  14  10  -6  188.68   10.20
 -14  10   6  172.18   10.70
  10  -6  14  186.38   10.80
  14 -10   6  169.98   10.70
   6  14 -10  180.48    9.60
  -6  14 -10  165.38   10.50
 -14  10  -6  165.48   10.70
 -12   6  14   21.40    3.10
 -14  12   6   27.60    3.50
  14 -12   6   33.10    3.90
   6 -14  12   27.90    3.30
  12  -6  14   27.60    3.50
 -14  12  -6   32.70    3.70
  -8  14   0 1294.27   68.39
 -14   0   8 1231.78   68.09
   0  -8  14 1374.46   67.89
  14  -2   8   53.49    4.80
  14   2  -8   54.99    4.30
 -14   2   8   56.79    4.50
   2  -8  14   57.49    4.20
  -8  14   2   55.59    4.80
  -8  14  -2   53.69    4.60
  -2  -8  14   55.69    3.60
 -14   4   8  773.22   43.10
   4  -8  14  815.12   42.90
  14  -4   8  787.32   43.20
  14   4  -8  851.21   42.80
  -8  14  -4  829.12   43.30
 -14   6   8 1764.12  107.29
  14  -6   8 1899.31  107.29
  14   6  -8 2257.57  106.89
   6  -8  14 2221.48  107.29
  -8  14  -6 2117.99  107.39
 -14   8   8  454.85   25.40
  14  -8   8  460.35   25.40
  14   8  -8  477.55   24.70
   8  -8  14  488.55   25.40
  -8  14  -8  440.16   25.30
   8  14 -10   35.40    2.40
  14  10  -8   37.30    3.10
 -14  10   8   34.30    4.30
   8 -14  10   39.00    4.10
  10  -8  14   32.50    3.80
  14 -10   8   38.70    4.30
  -8  14 -10   34.70    4.20
  14  12  -8  164.08    9.40
 -14  12   8  166.58   10.30
  12  -8  14  164.18   10.40
  14 -12   8  161.68   10.30
   8 -14  12  170.08   10.20
 -14  12  -8  163.18   10.30
 -14   0  10 2934.41  157.08
 -10  14   0 2989.20  157.38
   0 -10  14 3137.89  156.88
 -14   2  10  867.21   46.10
  14  -2  10  897.21   46.50
 -10  14   2  837.12   46.30
   2 -10  14  815.02   45.90
 -10  14  -2  887.11   46.50
 -14  -2  10  928.91   46.00
  14  -4  10   12.90    2.90
 -10  14   4   12.10    2.70
   4 -10  14   14.50    2.30
 -14   4  10   15.30    2.70
 -10  14  -4   11.50    2.50
   6 -10  14  184.98   10.30
 -10  14   6  170.58   10.40
 -14   6  10  171.88   10.30
  14  -6  10  165.78   10.50
 -10  14  -6  158.78   10.40
   8 -10  14   38.90    4.10
  14  -8  10   38.50    4.30
  10 -14   8   35.30    4.20
  14   8 -10   35.90    2.90
 -14   8  10   30.40    3.70
 -10  14  -8   38.00    4.20
  10 -14  10  693.73   37.60
  10 -10  14  771.72   37.80
 -14  10  10  678.43   37.70
  14  10 -10  690.73   36.70
 -10  14 -10  673.33   37.70
  12 -10  14  281.37   15.40
  14 -12  10  256.37   15.30
  10 -14  12  246.78   15.10
  14  12 -10  262.57   14.10
 -14  12  10  265.07   15.30
 -14   0  12 2480.25  129.29
 -12  14   0 2483.35  129.69
   2 -12  14  668.43   34.50
 -14   2  12  663.63   34.70
 -12  14   2  644.54   35.00
 -14  -2  12  668.33   34.50
 -12  14  -2  602.34   34.90
 -12  14   4   32.60    4.00
  14  -4  12   41.10    4.30
 -14   4  12   36.30    3.90
   4 -12  14   32.80    3.60
 -12  14  -4   34.20    4.30
 -14   6  12   29.30    3.40
 -12  14   6   30.80    3.60
   6 -12  14   23.60    3.00
  14  -6  12   34.30    3.80
 -12  14  -6   26.90    3.60
  14  -8  12  156.78   10.30
 -14   8  12  163.18   10.20
 -12  14   8  166.88   10.30
   8 -12  14  165.18   10.10
  12 -14   8  163.28   10.20
 -12  14  -8  169.08   10.40
  14 -10  12  277.67   15.80
  12  14 -10  287.17   14.30
 -14  10  12  263.67   15.60
 -12  14  10  265.27   15.60
  10 -12  14  262.67   15.60
  12 -14  10  253.17   15.60
 -14  12  12  584.94   31.20
  12 -14  12  552.94   31.10
  12 -12  14  579.74   31.30
  14 -12  12  566.34   31.20
 -14   0  14 1917.81  103.59
 -14  14   0 2052.29  104.09
 -14  14   2  259.57   14.10
 -14  14  -2  215.68   13.80
 -14  -2  14  232.68   13.10
 -14   4  14  634.34   34.30
  14  -4  14  639.74   34.60
 -14  14   4  636.44   34.60
 -14  14  -4  645.04   34.60
 -14   6  14  779.82   41.70
  14  -6  14  761.72   41.80
 -14  14   6  811.42   41.90
   6 -14  14  796.62   41.60
  14 -14   6  739.93   41.70
 -14  14  -6  786.82   41.90
 -14   8  14   26.80    3.70
  14  -8  14   22.20    3.60
 -14  14   8   26.90    3.60
   8 -14  14   26.00    3.50
  14 -14   8   26.00    3.70
 -14  14  -8   32.10    4.00
 -14  10  14    1.60    2.40
 -14  14  10    0.30    2.30
  10 -14  14    0.90    2.30
  14 -14  10    1.70    2.50
  14 -10  14    2.60    2.80
  14  14 -10    3.10    1.20
 -14  12  14  123.69    8.60
 -14  14  12  123.79    8.60
  12 -14  14  122.49    8.50
  14 -14  12  115.09    8.40
  14 -12  14  114.89    8.60
 -14  14  14  299.67   17.70
  14 -14  14  307.77   17.80
  15   1  -1 3521.45  180.38
  15  -1   1 3224.38  180.38
  15  -1  -1 3573.24  180.48
  15   1   1 3553.54  180.48
  15   3  -1   27.90    3.50
  15  -3   1   29.00    3.60
 -15   3   1   31.30    3.40
  15   3   1   31.30    3.50
  15  -3  -1   30.80    3.70
  15  -5   1 2144.79  111.69
 -15   5   1 2129.39  111.59
  15   5  -1 2265.87  111.59
 -15   5  -1 2094.09  111.59
  -1  15  -5 2108.69  111.39
  15  -5  -1 2073.99  111.59
 -15   7   1    5.60    2.30
   1  15  -7    7.90    1.80
  15  -7   1    7.80    2.50
  15  -7  -1    7.10    2.30
  -1  15  -7    8.30    1.80
 -15   7  -1    6.40    2.30
 -15   9   1  584.54   32.60
  15  -9   1  554.04   32.50
   1  15  -9  620.34   32.20
  -1  15  -9  646.64   32.30
 -15   9  -1  618.74   32.70
 -15  11   1 1014.20   54.39
 -11   1  15 1054.99   53.99
   1  15 -11 1047.20   53.79
  -1  15 -11 1024.40   53.89
 -11  -1  15 1063.59   53.79
 -15  11  -1  939.71   54.29
 -13   1  15  944.01   48.90
 -15  13   1  881.21   49.20
 -15  13  -1  937.71   49.30
 -13  -1  15  934.21   48.70
  15  -1   3   30.20    3.70
  15   1  -3   30.60    3.40
  15  -1  -3   32.00    3.50
  15   1   3   27.60    3.50
  15   3  -3 1809.12   92.49
 -15   3   3 1729.13   92.49
  15  -3   3 1700.63   92.59
  -3  15  -3 1752.02   92.39
  15  -3  -3 1844.72   92.59
 -15   5   3 4598.44  242.68
  15  -5   3 4448.46  242.68
  15   5  -3 4961.70  242.68
  -3  15  -5 4661.23  242.58
  15  -5  -3 4687.73  242.68
  15  -7   3 1726.03   88.89
   3  15  -7 1748.13   88.39
 -15   7   3 1616.94   88.79
  15   7  -3 1596.84   88.49
  -3  15  -7 1922.31   88.79
 -15   7  -3 1552.44   88.79
 -15   9   3  104.89    7.30
  15  -9   3  111.59    7.50
   3  15  -9  118.99    6.70
  -3  15  -9  105.19    7.00
  -9  -3  15  115.39    6.40
 -15   9  -3   96.09    7.40
   3  15 -11    1.70    1.30
 -15  11   3    3.70    2.30
 -11   3  15    1.50    1.80
  15 -11   3    0.60    2.00
 -11  -3  15    1.80    1.20
  -3  15 -11    1.00    1.70
 -15  11  -3    2.60    2.30
 -15  13   3  103.19    7.40
 -13   3  15  101.69    6.90
 -15  13  -3  104.99    7.30
 -13  -3  15  100.09    6.20
 -15   1   5 2057.49  109.09
  15  -1   5 2108.99  109.29
  15   1  -5 2195.68  109.09
  15   1   5 2036.20  109.29
  15  -1  -5 2101.69  109.09
  -5  15  -1 2038.90  109.09
  15  -3   5 4507.85  243.38
  15   3  -5 4935.01  243.28
 -15   3   5 4645.54  243.28
  -5  15  -3 4637.64  243.28
  15  -3  -5 4695.63  243.38
  15   7  -5 6019.60  304.47
 -15   7   5 5766.42  304.77
  15  -7   5 5637.74  304.77
  -5  15  -7 6052.59  304.67
  15  -9   5 1958.20  102.29
 -15   9   5 1944.51  102.29
   9  -5  15 1985.20  102.29
   5  15  -9 2084.29  101.59
  15   9  -5 1948.41  101.89
  -5  15  -9 1798.32  101.99
 -15   9  -5 1947.21  102.29
   5  15 -11  579.54   35.40
  11  -5  15  686.33   36.40
  15 -11   5  671.33   36.40
 -15  11   5  748.23   36.60
  -5  15 -11  668.03   36.20
 -15  11  -5  717.03   36.50
 -13   5  15 1173.58   63.49
 -15  13   5 1204.68   63.79
  15 -13   5 1151.18   63.69
  13  -5  15 1185.18   63.69
 -15  13  -5 1306.87   63.89
 -15   1   7    8.10    2.00
  15  -1   7    7.90    2.50
  15   1  -7    9.30    2.00
  -7  15   1    4.40    2.10
   1  -7  15    7.90    1.70
  -1  -7  15    8.50    1.50
  -7  15  -1    7.00    2.10
  15   3  -7 1782.12   90.89
  15  -3   7 1706.33   91.19
 -15   3   7 1705.13   91.09
   3  -7  15 1892.11   90.99
  -3  -7  15 1707.13   90.39
  -7  15  -3 1646.24   91.09
  15  -5   7 6150.58  314.67
   5  -7  15 5997.40  314.47
  15   5  -7 6173.38  314.37
 -15   5   7 5852.81  314.57
  -7  15  -5 6127.99  314.67
  15  -7   7 3455.05  192.78
 -15   7   7 3703.63  192.88
   7  -7  15 3721.93  192.78
  15   7  -7 3896.51  192.48
  -7  15  -7 3744.63  192.78
  15  -9   7 1215.68   66.49
  15   9  -7 1179.58   65.79
   9  -7  15 1288.27   66.39
   7  15  -9 1269.07   65.59
  -7  15  -9 1338.87   66.39
  11  -7  15   62.09    5.50
  15 -11   7   61.09    5.50
  15  11  -7   66.79    4.60
 -15  11   7   61.89    5.30
   7  15 -11   63.39    3.70
  -7  15 -11   55.19    5.20
 -15  13   7  341.37   18.80
  13  -7  15  334.67   18.80
 -13   7  15  321.87   18.60
  15 -13   7  307.67   18.60
 -15  13  -7  343.17   18.80
   1  -9  15  621.44   31.70
  15  -1   9  607.84   32.30
  -9  15   1  544.55   32.10
 -15   1   9  595.04   32.00
  -1  -9  15  614.54   31.50
 -15  -1   9  628.64   31.90
  -9  15  -1  569.74   32.20
   3  -9  15  113.49    6.80
 -15   3   9  110.69    7.10
  15  -3   9  102.29    7.20
  -9  15   3   99.49    7.20
  15   5  -9 2082.59  101.19
  15  -5   9 1835.32  101.69
   5  -9  15 1845.92  101.39
 -15   5   9 2056.59  101.69
  -9  15  -5 1883.01  101.59
  15  -7   9 1197.78   66.29
   7  -9  15 1312.87   66.19
  15   7  -9 1207.48   65.69
  -9  15  -7 1308.47   66.39
   9  -9  15    3.50    2.30
  15   9  -9    2.60    1.40
 -15   9   9    2.90    2.20
  15  -9   9    4.30    2.50
  -9  15  -9    1.00    2.10
  15  11  -9  214.38   11.50
 -15  11   9  210.28   12.50
  15 -11   9  189.08   12.40
  11  -9  15  212.08   12.50
   9 -15  11  201.88   12.40
  -9  15 -11  214.88   12.50
 -13   9  15   12.20    3.00
 -15  13   9   12.00    3.10
  13  -9  15    7.60    2.90
   9 -15  13   11.20    2.90
  15  13  -9   10.90    1.90
  15 -13   9   10.10    2.80
 -15   1  11  933.41   51.99
   1 -11  15 1019.30   51.69
 -11  15   1 1006.60   52.29
 -15  -1  11  982.80   51.89
 -11  15   3   -0.20    2.10
 -15   3  11    1.30    1.90
  15  -3  11    0.10    2.20
   3 -11  15    1.40    1.60
 -11  15  -3    2.40    2.20
  15  -5  11  691.83   36.40
   5 -11  15  730.03   36.20
 -11  15   5  686.53   36.30
 -15   5  11  617.24   36.20
 -11  15  -5  647.54   36.30
 -15   7  11   65.79    5.40
   7 -11  15   51.59    5.10
 -11  15   7   63.89    5.50
  15  -7  11   69.29    5.70
 -11  15  -7   61.39    5.50
  15  -9  11  201.78   12.40
   9 -11  15  225.78   12.50
 -15   9  11  192.58   12.30
 -11  15  -9  208.08   12.50
  11 -11  15  910.51   47.00
 -15  11  11  882.01   46.90
  11 -15  11  832.22   46.80
  15 -11  11  881.01   47.00
 -15  13  11   11.60    3.00
  15 -13  11   11.00    3.00
  11 -15  13   11.90    3.00
  13 -11  15   14.70    3.40
 -13  11  15   13.70    3.00
  15  13 -11   15.50    1.70
 -15   1  13  881.41   45.70
 -15  -1  13  842.62   45.50
 -13  15  -1  858.91   46.00
  15  -3  13  108.79    7.50
   3 -13  15   99.79    6.70
 -15   3  13  109.19    7.20
 -13  15   3  107.19    7.40
 -13  15  -3   96.89    7.40
   5 -13  15 1230.58   63.09
 -15   5  13 1220.98   63.39
 -13  15   5 1187.08   63.39
  15  -5  13 1137.69   63.39
 -13  15  -5 1214.88   63.49
  15  -7  13  319.27   18.50
   7 -13  15  321.27   18.20
 -15   7  13  304.47   18.30
 -13  15   7  345.37   18.50
 -13  15  -7  331.27   18.60
 -15   9  13   10.60    2.90
   9 -13  15   11.20    2.90
  13 -15   9   13.90    3.00
  15  -9  13   11.20    3.00
 -13  15   9   16.90    3.30
 -13  15  -9    9.40    3.10
 -15  11  13   12.80    3.10
 -13  15  11   14.20    3.20
  11 -13  15   18.70    3.40
  13 -15  11   15.10    3.20
  15 -11  13    8.90    3.10
 -15  13  13   15.10    3.30
 -13  15  13   20.40    3.70
  13 -15  13   12.20    3.30
  13 -13  15   15.20    3.40
  15 -13  13   13.10    3.30
 -15  15   1   82.59    6.30
 -15   1  15   81.59    5.80
 -15  15  -1   75.59    6.30
 -15  -1  15   70.19    5.40
  15  -3  15  656.23   38.20
 -15  15   3  765.12   38.40
 -15  15  -3  704.53   38.20
 -15   5  15 3094.89  163.78
  15  -5  15 3098.59  163.98
 -15  15   5 3161.98  163.98
 -15  15  -5 3207.78  163.98
 -15   7  15 1398.06   83.19
  15  -7  15 1659.93   83.59
 -15  15   7 1734.83   83.59
   7 -15  15 1618.84   83.29
 -15  15  -7 1506.85   83.39
 -15   9  15  413.66   23.30
  15  -9  15  418.96   23.40
 -15  15   9  427.76   23.40
   9 -15  15  387.56   23.10
  15 -15   9  402.76   23.30
  15  15  -9  433.86   22.40
 -15  15  -9  430.96   23.50
 -15  11  15   28.80    4.20
 -15  15  11   28.80    3.90
  11 -15  15   19.30    3.40
  15 -15  11   32.30    4.30
  15 -11  15   21.50    3.90
 -15  13  15  503.95   26.90
 -15  15  13  463.95   26.70
  15 -15  13  485.95   26.80
  15 -13  15  466.45   26.80
 -15  15  15  749.23   40.90
  15 -15  15  755.72   40.90
  16   0   0 3912.81  203.58
  16   2   0  693.83   38.30
  16  -2   0  743.13   38.40
  16  -4   0 1237.88   66.39
  16   4   0 1280.57   66.29
   0  16  -6 1379.86   69.69
  16  -6   0 1282.97   69.89
 -16   6   0 1314.07   69.89
  16  -8   0  122.19    8.30
   0  16  -8  137.79    7.90
 -16   8   0  122.69    8.30
   0  16 -10  649.54   34.10
  16 -10   0  681.53   34.60
 -16  10   0  537.05   34.40
 -10   0  16  694.53   34.10
 -12   0  16  607.34   31.30
 -16  12   0  598.64   31.90
   0  16 -12  552.44   31.20
 -14   0  16  117.39    7.40
 -16  14   0  114.59    8.20
  16   0   2  725.73   38.50
  16   0  -2  714.63   38.40
  16   2  -2    9.20    2.30
  16  -2   2    6.20    2.10
  16   2   2    9.60    2.30
  16  -2  -2    7.10    2.20
 -16   4   2 2401.76  126.29
  16  -4   2 2379.96  126.29
  16   4  -2 2470.35  126.19
  -2  16  -4 2461.55  126.19
  16  -4  -2 2384.56  126.29
  16   6  -2 2236.68  118.89
  16  -6   2 2257.67  119.09
 -16   6   2 2367.86  119.09
  16  -6  -2 2266.87  119.09
 -16   6  -2 2277.47  119.09
  -2  16  -6 2261.67  118.89
 -16   8   2   82.99    6.50
   2  16  -8   87.19    5.80
  16  -8   2   91.89    6.50
 -16   8  -2   96.19    6.70
  -2  16  -8   97.29    6.20
  16  -8  -2   85.09    6.50
 -16  10   2   79.09    6.10
   2  16 -10   80.39    5.30
  16 -10   2   78.19    6.10
 -16  10  -2   76.89    6.20
 -10  -2  16   81.49    5.10
  -2  16 -10   76.79    5.60
 -16  12   2   36.60    4.50
 -12   2  16   38.90    3.80
   2  16 -12   35.70    3.30
  -2  16 -12   31.20    3.70
 -12  -2  16   36.00    3.30
 -16  12  -2   37.40    4.20
 -16  14   2   89.59    6.90
 -14   2  16   95.49    6.50
 -14  -2  16   81.89    5.80
 -16  14  -2   96.59    7.00
  16   0  -4 1216.58   62.99
  16   0   4 1173.48   63.09
  16  -2   4 2225.88  123.09
 -16   2   4 2279.07  122.99
  16   2  -4 2451.65  122.99
  16   2   4 2339.57  123.09
  16  -2  -4 2508.25  123.09
  -4  16  -2 2340.87  122.99
  16   4  -4 5507.95  280.47
 -16   4   4 5209.38  280.57
  16  -4   4 5346.57  280.57
  16  -4  -4 5501.95  280.57
  -4  16  -4 5447.16  280.47
 -16   6   4 7128.59  384.06
  16   6  -4 7247.68  383.86
  16  -6   4 7715.43  384.26
  -4  16  -6 7517.85  384.06
  16  -8   4 2505.75  129.19
  16   8  -4 2551.34  128.89
   4  16  -8 2513.55  128.59
 -16   8   4 2239.78  128.99
 -16   8  -4 2309.87  129.09
  -8  -4  16 2688.63  128.29
  -4  16  -8 2485.65  128.99
   4  16 -10  808.42   41.00
 -16  10   4  756.32   41.70
  16 -10   4  771.62   41.70
  -4  16 -10  787.02   41.50
 -10  -4  16  774.62   40.70
 -16  10  -4  774.82   41.70
  12  -4  16  667.83   35.10
   4  16 -12  670.43   34.10
  16 -12   4  662.13   35.10
 -12   4  16  621.04   34.80
 -16  12   4  676.23   35.20
 -16  12  -4  559.94   34.90
 -12  -4  16  707.33   34.10
  -4  16 -12  619.44   34.70
 -14   4  16 2187.88  115.39
  14  -4  16 2258.87  115.69
 -16  14   4 2258.87  115.69
 -16  14  -4 2120.19  115.59
  16   0   6 1357.56   71.29
  16   0  -6 1377.96   71.09
  -6  16   0 1318.27   71.09
  16  -2   6 2334.67  121.39
 -16   2   6 2316.77  121.19
  16   2  -6 2372.56  121.09
  -6  16  -2 2174.98  121.19
  16  -2  -6 2410.66  121.29
   4  -6  16 8361.36  383.86
  16   4  -6 6291.07  383.56
 -16   4   6 7854.91  383.86
  16  -4   6 7089.29  383.86
 -16   6   6 8804.22  445.16
  16   6  -6 8544.95  444.86
  16  -6   6 8427.56  445.16
   6  -6  16 8654.93  445.06
  -6  16  -6 8476.25  445.16
  16   8  -6 4776.92  226.78
 -16   8   6 4320.27  227.08
   8  -6  16 4340.77  227.08
  -6  16  -8 4023.30  226.88
 -16  10   6 1030.60   54.89
  16 -10   6 1012.70   54.89
  16  10  -6 1073.19   54.49
  10  -6  16 1011.20   54.89
   6  16 -10 1066.59   54.09
  -6  16 -10 1006.30   54.69
  16 -12   6  556.54   31.40
 -16  12   6  577.94   31.50
  12  -6  16  578.74   31.50
 -16  12  -6  607.64   31.60
  -6  16 -12  567.54   31.30
 -14   6  16 2213.48  121.29
  16 -14   6 2396.76  121.49
 -16  14   6 2267.67  121.49
  14  -6  16 2328.07  121.49
 -16  14  -6 2389.06  121.59
  16   0   8  114.69    8.00
   0  -8  16  129.49    7.20
  -8  16   0  118.59    8.00
 -16   0   8  122.39    7.70
   2  -8  16   80.69    5.50
  -8  16   2   78.39    6.10
  16  -2   8   69.79    6.00
 -16   2   8   89.09    6.00
  16   2  -8   83.69    5.70
  -2  -8  16   86.99    5.00
  -8  16  -2   87.59    6.20
  16   4  -8 2411.06  123.29
 -16   4   8 2465.35  123.59
  16  -4   8 2447.56  123.69
  -8  16  -4 2138.89  123.59
 -16   6   8 4467.55  231.78
  16  -6   8 4275.27  231.78
  16   6  -8 4426.96  231.38
   6  -8  16 4927.71  231.78
  -8  16  -6 4184.58  231.68
  16   8  -8  986.00   49.20
 -16   8   8 1004.30   49.80
  16  -8   8  992.40   49.80
   8  -8  16  858.81   49.50
  -8  16  -8  826.52   49.50
   8  16 -10    3.80    1.20
  16 -10   8    4.10    2.60
  16  10  -8    2.90    1.60
  10  -8  16    4.50    2.30
 -16  10   8   -2.30    2.20
  -8  16 -10    2.70    2.40
 -16  12   8   22.30    3.50
  16 -12   8   18.00    3.30
  16  12  -8   26.10    3.10
  12  -8  16   16.00    3.20
  16 -14   8  768.62   40.70
  14  -8  16  718.13   40.60
 -16  14   8  757.42   40.70
 -14   8  16  721.73   40.50
  16  14  -8  824.72   40.00
 -16  14  -8  726.63   40.70
 -16   0  10  654.03   36.10
   0 -10  16  706.83   35.80
 -10  16   0  673.53   36.50
 -16   2  10   76.69    5.50
  16  -2  10   75.59    6.00
   2 -10  16   75.89    5.20
 -10  16   2   77.69    5.80
 -10  16  -2   57.29    5.80
 -16   4  10  748.43   41.80
  16  -4  10  790.52   42.10
   4 -10  16  843.52   41.70
 -10  16   4  748.53   41.90
 -10  16  -4  792.62   42.00
   6 -10  16  982.50   52.09
  16  -6  10 1040.00   52.39
 -16   6  10 1010.40   52.29
 -10  16   6  997.50   52.29
 -10  16  -6  888.31   52.19
   8 -10  16    4.30    2.30
 -16   8  10    1.50    2.20
  16  -8  10    5.60    2.70
  16   8 -10    2.90    1.50
 -10  16  -8    2.00    2.30
  10 -10  16 1122.49   62.19
 -16  10  10 1193.38   62.39
  16  10 -10 1184.78   61.49
 -10  16 -10 1200.48   62.29
 -16  12  10  103.09    7.60
  16 -12  10   93.59    7.40
  12 -10  16   99.39    7.60
  16  12 -10  100.19    6.10
  10 -16  14  106.19    8.00
  14 -10  16  110.99    8.40
  16 -14  10  107.39    8.20
  16  14 -10  116.79    6.80
 -16  14  10  115.19    8.20
 -14  10  16  115.59    8.30
 -12  16   0  440.06   27.40
 -16   0  12  561.34   27.20
 -16   2  12   26.90    3.40
  16  -2  12   35.10    4.00
   2 -12  16   33.80    3.40
 -12  16   2   36.50    4.00
 -12  16  -2   37.50    4.40
  16  -4  12  628.94   35.40
 -16   4  12  656.73   35.30
   4 -12  16  661.73   35.00
 -12  16   4  684.73   35.50
 -12  16  -4  645.74   35.40
 -12  16   6  558.94   30.20
  16  -6  12  522.75   30.30
   6 -12  16  604.24   30.10
 -12  16  -6  532.65   30.30
 -16   8  12   18.10    3.10
   8 -12  16   12.70    2.90
 -12  16   8   22.50    3.50
  16  -8  12   19.90    3.40
 -12  16  -8   21.00    3.40
  16 -10  12   99.89    7.50
 -16  10  12  109.99    7.50
  10 -12  16   78.09    7.30
 -12  16  10   97.49    7.30
 -12  16 -10   99.89    7.50
  12 -12  16    6.20    3.00
  12 -16  12   15.60    3.20
 -16  12  12   15.90    3.40
  16 -12  12   18.40    3.60
 -16  14  12   95.49    7.60
  12 -16  14   99.09    7.70
 -14  12  16  103.29    7.80
  16 -14  12   96.79    7.70
 -16   0  14  104.79    7.20
 -14  16   0  119.29    8.00
  16  -2  14   95.09    7.20
 -16   2  14   91.59    6.60
 -14  16  -2   89.99    7.00
 -16  -2  14   91.59    6.20
  16  -4  14 2032.60  110.99
 -16   4  14 2072.79  110.89
   4 -14  16 2159.28  110.59
 -14  16   4 2135.59  110.99
 -14  16  -4 2186.38  111.09
 -16   6  14 2512.65  133.69
 -14  16   6 2531.35  133.79
   6 -14  16 2350.96  133.39
  16  -6  14 2760.92  133.99
 -14  16  -6 2634.54  133.89
  16  -8  14  727.23   39.90
 -14  16   8  752.92   39.90
   8 -14  16  723.03   39.70
 -16   8  14  741.43   39.90
 -14  16  -8  750.02   40.00
  10 -14  16  105.09    8.20
  14 -16  10  117.99    8.30
  14  16 -10  112.09    6.70
 -14  16  10  118.99    8.30
 -16  10  14  117.39    8.40
  16 -10  14  118.09    8.50
 -14  16 -10  111.29    8.50
  12 -14  16   87.29    7.60
  14 -16  12   91.19    7.60
  16 -12  14  100.09    7.90
 -14  16  12   95.89    7.50
 -16  12  14  103.89    7.70
 -16  14  14  575.14   30.60
 -14  14  16  561.84   30.60
 -14  16  14  560.84   30.60
  14 -16  14  509.05   30.40
  14 -14  16  534.05   30.50
  16 -14  14  574.54   30.70
 -16   0  16   59.99    5.30
 -16  16   0   75.89    6.10
  16  -2  16  431.16   24.00
 -16   2  16  401.76   23.50
 -16  16   2  459.75   24.00
 -16  16  -2  435.26   24.00
 -16  -2  16  414.46   23.10
  16  -4  16 3513.45  183.68
 -16  16   4 3821.62  183.88
 -16  16  -4 3227.28  183.48
 -16   6  16 4183.48  216.78
  16  -6  16 4158.38  216.88
 -16  16   6 4173.78  216.88
 -16  16  -6 4131.69  216.88
 -16   8  16 1603.24   88.89
  16  -8  16 1829.12   89.29
 -16  16   8 1780.82   89.09
   8 -16  16 1545.85   88.69
 -16  16  -8 1689.93   89.09
 -16  10  16  415.56   22.90
 -16  16  10  429.16   22.90
  10 -16  16  337.77   22.50
  16 -16  10  398.66   22.80
  16 -10  16  396.56   22.90
  16  16 -10  438.86   21.70
 -16  12  16  797.02   41.30
 -16  16  12  786.62   41.20
  12 -16  16  701.13   41.00
  16 -16  12  751.32   41.10
 -16  14  16 1045.10   56.69
 -16  16  14 1087.39   56.79
 -14  16  16 1071.59   56.79
  14 -16  16 1040.70   56.69
  16 -16  14 1071.19   56.79
  16 -14  16 1041.90   56.79
 -16  16  16 1669.13   85.09
  16 -16  16 1541.05   84.99
  17   1  -1 1142.89   58.99
  17  -1   1 1014.30   58.89
  17  -1  -1 1137.89   58.99
  17   1   1 1168.88   58.99
  17   3  -1  228.38   13.30
  17  -3   1  238.58   13.50
  17  -3  -1  233.58   13.50
  17   3   1  225.98   13.40
  17  -5   1 1713.93   87.09
  17   5  -1 1703.03   86.99
 -17   5   1 1658.53   87.09
  17   5   1 1632.84   86.99
  17  -5  -1 1585.24   86.99
  -1  17  -5 1654.33   86.89
   1  17  -7  373.86   19.90
 -17   7   1  360.66   20.30
  17  -7   1  340.17   20.20
 -17   7  -1  372.66   20.30
  -1  17  -7  380.26   20.00
  17  -7  -1  352.06   20.20
 -17   9   1  253.47   14.10
   1  17  -9  205.18   13.50
  17  -9   1  254.67   14.10
  17  -9  -1  246.98   14.10
  -1  17  -9  257.47   13.70
 -17   9  -1  224.98   13.90
 -11   1  17  257.57   14.00
  17 -11   1  217.68   14.30
   1  17 -11  233.18   13.80
 -17  11   1  247.28   14.60
 -11  -1  17  255.37   13.80
 -17  11  -1  259.87   14.60
  -1  17 -11  260.47   14.10
 -13   1  17   30.50    3.80
   1  17 -13   31.60    3.50
 -17  13   1   38.80    4.30
 -13  -1  17   36.00    3.60
 -17  13  -1   31.10    4.00
  -1  17 -13   35.70    3.90
 -15   1  17  168.08   10.10
 -17  15   1  158.28   10.50
 -15  -1  17  159.78    9.80
 -17  15  -1  168.08   10.50
  17   1  -3  236.78   13.30
  17  -1   3  229.88   13.40
  17   1   3  235.18   13.50
  17  -1  -3  224.08   13.30
 -17   3   3 1641.64   87.39
  17   3  -3 1711.83   87.29
  17  -3   3 1634.64   87.39
  17  -3  -3 1658.03   87.39
  -3  17  -3 1662.43   87.29
  17   3   3 1686.63   87.39
  17   5  -3 3352.76  164.98
  17  -5   3 3097.99  165.08
 -17   5   3 3122.89  164.98
  17  -5  -3 3099.39  164.98
  -3  17  -5 3161.08  164.88
  17   7  -3 2430.26  115.89
 -17   7   3 2121.39  115.89
   3  17  -7 2259.77  115.49
  17  -7   3 2148.98  115.89
  17  -7  -3 2128.59  115.89
  -3  17  -7 2207.38  115.79
  17  -9   3  180.18   11.30
 -17   9   3  170.98   11.30
   3  17  -9  199.28   10.80
  -9  -3  17  194.58   10.40
  -3  17  -9  191.18   11.10
 -17   9  -3  180.78   11.40
   3  17 -11   58.99    4.30
 -17  11   3   51.29    5.40
  17 -11   3   59.19    5.40
  -3  17 -11   60.69    5.00
 -11  -3  17   57.29    4.00
 -17  11  -3   57.09    5.40
 -17  13   3  588.64   32.50
 -13   3  17  583.04   32.20
  -3  17 -13  586.74   32.10
 -17  13  -3  623.14   32.60
 -13  -3  17  603.54   31.60
  15  -3  17 1768.52   94.39
 -17  15   3 1847.62   94.39
 -15   3  17 1730.23   94.09
 -15  -3  17 1766.82   93.59
 -17  15  -3 1859.11   94.49
  17  -1   5 1648.24   88.29
  17   1  -5 1774.12   88.19
  17   1   5 1685.03   88.29
  17  -1  -5 1718.93   88.19
  -5  17  -1 1577.24   88.09
  17  -3   5 3144.29  165.98
 -17   3   5 3174.48  165.88
  17   3  -5 3351.26  165.88
  17  -3  -5 3262.87  165.98
  -5  17  -3 2992.10  165.88
  17  -5   5 5773.12  311.37
 -17   5   5 5743.33  311.37
  17   5  -5 6313.77  311.27
  -5  17  -5 6155.18  311.37
  17   7  -5 5094.69  266.07
 -17   7   5 5115.79  266.37
  -5  17  -7 5162.88  266.27
   9  -5  17 1242.88   60.99
   5  17  -9 1198.18   60.29
  17   9  -5 1168.28   60.69
 -17   9   5 1130.69   60.89
  17  -9   5 1088.19   60.89
  -9  -5  17 1147.89   59.69
  -5  17  -9 1079.49   60.69
 -17  11   5  332.67   19.20
  17  11  -5  338.27   18.90
  11  -5  17  351.86   19.30
  17 -11   5  337.97   19.30
   5  17 -11  339.47   18.30
 -17  11  -5  368.76   19.40
  -5  17 -11  314.87   19.00
 -13   5  17 1301.47   72.59
  17 -13   5 1384.66   72.79
  13  -5  17 1372.36   72.89
 -17  13   5 1377.26   72.79
 -17  13  -5 1455.75   72.99
 -15   5  17 3589.54  194.68
  15  -5  17 3385.46  194.78
 -17  15   5 3980.70  194.98
 -17  15  -5 3996.20  194.98
  17   1  -7  360.16   19.50
   1  -7  17  343.87   19.20
 -17   1   7  369.26   19.60
  -7  17   1  335.37   19.60
  17  -1   7  344.07   19.70
  -1  -7  17  359.56   19.00
  17   1   7  350.06   19.80
  -7  17  -1  337.87   19.60
  17  -1  -7  373.26   19.60
 -17   3   7 2236.58  123.49
  17  -3   7 2429.16  123.79
  17   3  -7 2372.26  123.39
   3  -7  17 2483.75  123.39
  -3  -7  17 2457.45  122.89
  -7  17  -3 2214.78  123.59
  17  -5   7 5224.28  274.57
  17   5  -7 5551.94  274.37
   5  -7  17 5245.98  274.37
 -17   5   7 5109.79  274.47
  17  -7   7 3791.52  198.38
  17   7  -7 3880.71  198.08
 -17   7   7 3595.14  198.28
   7  -7  17 4096.49  198.38
  -7  17  -7 3684.33  198.28
   9  -7  17  548.05   29.80
   7  17  -9  569.84   29.00
 -17   9   7  533.85   29.70
  17   9  -7  535.55   29.20
  17  -9   7  548.15   29.90
  -7  17  -9  535.85   29.70
  11  -7  17   54.09    5.40
  17 -11   7   52.29    5.50
  17  11  -7   53.39    4.50
   7  17 -11   56.19    3.70
 -17  11   7   49.70    5.20
  -7  17 -11   49.50    5.10
  17  13  -7  516.95   27.30
 -17  13   7  532.45   28.00
  13  -7  17  485.15   27.80
 -13   7  17  458.45   27.60
  17 -13   7  485.15   27.80
 -17  13  -7  551.54   28.00
  17 -15   7 2520.15  132.59
 -15   7  17 2290.97  132.39
  15  -7  17 2658.63  132.79
 -17  15  -7 2664.83  132.79
  -9  17   1  250.87   15.00
 -17   1   9  244.78   14.70
   1  -9  17  279.87   14.40
  17  -1   9  249.28   15.00
  -1  -9  17  275.27   14.20
  -9  17  -1  256.47   15.00
 -17   3   9  185.28   11.30
  17   3  -9  192.78   11.00
   3  -9  17  205.58   11.10
  17  -3   9  183.08   11.60
  -9  17   3  186.88   11.40
  -9  17  -3  160.08   11.30
  -3  -9  17  200.98   10.20
  17  -5   9 1110.79   59.69
  17   5  -9 1136.19   59.19
 -17   5   9 1087.99   59.59
   5  -9  17 1084.79   59.39
  -9  17   5 1125.39   59.59
  -9  17  -5 1213.28   59.79
 -17   7   9  636.84   30.90
  17  -7   9  538.85   30.70
  17   7  -9  539.95   30.10
   7  -9  17  570.74   30.60
  -9  17  -7  540.25   30.70
  17  -9   9  678.63   38.80
 -17   9   9  720.43   38.80
   9  -9  17  787.22   38.80
  17   9  -9  756.32   38.10
  -9  17  -9  652.23   38.60
  17  11  -9  331.27   18.20
  17 -11   9  318.17   19.00
  11  -9  17  349.37   19.10
   9  17 -11  333.27   17.60
  17 -13   9    5.00    3.00
  13  -9  17    2.50    2.80
 -17  13   9    6.20    2.80
  17  13  -9    5.50    1.90
 -15   9  17  658.53   36.30
 -17  15   9  688.33   36.40
  17 -15   9  656.63   36.30
  17  15  -9  725.33   35.50
  15  -9  17  599.84   36.30
 -11  17   1  246.78   14.20
   1 -11  17  244.38   13.50
 -17   1  11  223.08   13.80
  17  -1  11  225.98   14.20
 -11  17  -1  255.37   14.30
  -1 -11  17  258.57   13.20
 -17  -1  11  240.28   13.80
 -17   3  11   54.29    5.00
   3 -11  17   59.69    4.60
 -11  17   3   56.09    5.30
  17  -3  11   56.39    5.40
 -11  17  -3   56.79    5.20
   5 -11  17  354.66   18.90
 -11  17   5  339.37   19.10
 -17   5  11  322.47   19.00
  17  -5  11  330.87   19.20
 -11  17  -5  341.67   19.20
 -17   7  11   49.90    5.20
 -11  17   7   55.29    5.20
   7 -11  17   58.19    5.00
  17  -7  11   44.20    5.20
 -11  17  -7   45.90    5.20
  17  -9  11  318.37   18.10
   9 -11  17  287.67   17.70
 -11  17  -9  329.17   18.00
  17 -11  11  144.59    9.60
 -17  11  11  132.59    9.40
  11 -11  17  134.69    9.50
  17  11 -11  140.49    8.10
 -11  17 -11  145.29    9.60
  13 -11  17    7.20    3.20
  17 -13  11    9.90    3.20
 -17  13  11    4.60    2.80
  17  13 -11    8.10    1.60
  15 -11  17  315.57   18.10
 -15  11  17  285.37   17.80
 -17  15  11  310.37   17.90
  17  15 -11  306.77   16.40
  17 -15  11  309.37   18.00
  17  -1  13   43.50    4.60
 -13  17   1   37.40    4.60
 -17   1  13   34.80    4.10
 -17  -1  13   32.70    3.90
 -13  17  -1   33.80    4.10
  17  -3  13  573.94   32.60
   3 -13  17  591.14   32.10
 -17   3  13  597.94   32.40
 -13  17   3  607.14   32.60
 -13  17  -3  625.64   32.70
  17  -5  13 1377.36   73.99
   5 -13  17 1375.06   73.59
 -13  17   5 1391.96   73.99
 -13  17  -5 1459.25   74.09
 -13  17   7  520.45   27.50
  17  -7  13  493.65   27.50
 -17   7  13  425.36   27.30
   7 -13  17  482.05   27.20
 -13  17  -7  569.54   27.70
 -17   9  13    5.00    2.70
  17  -9  13    7.30    3.00
   9 -13  17    6.00    2.80
 -13  17   9    6.40    2.90
 -13  17  -9    5.70    2.90
 -13  17  11    7.10    3.00
  17 -11  13   -0.30    2.80
  11 -13  17    7.00    3.10
 -17  11  13    4.30    2.80
 -17  13  13   27.40    4.20
  13 -13  17   36.10    4.80
 -13  17  13   29.80    4.30
  17 -13  13   29.50    4.40
  13 -17  13   31.50    4.40
  15 -13  17  704.93   38.50
 -15  13  17  727.33   38.50
  13 -17  15  650.73   38.20
  17 -15  13  731.43   38.50
 -17  15  13  706.23   38.40
 -15  17   1  173.38   10.60
 -17   1  15  156.48   10.10
 -15  17  -1  177.68   10.60
 -17  -1  15  150.08    9.80
  17  -3  15 1783.82   90.49
 -17   3  15 1586.44   90.09
 -15  17  -3 1781.32   90.49
   5 -15  17 4088.69  203.58
  17  -5  15 3925.91  203.88
 -17   5  15 3533.65  203.58
 -15  17   5 4040.20  203.88
 -15  17  -5 3963.50  203.88
  17  -7  15 2628.14  127.39
 -17   7  15 2321.77  127.09
 -15  17   7 2394.76  127.09
   7 -15  17 2271.37  126.89
 -15  17  -7 2521.35  127.29
 -15  17   9  684.93   35.30
   9 -15  17  558.54   34.90
 -17   9  15  670.33   35.30
  17  -9  15  686.03   35.40
 -15  17  -9  629.84   35.20
 -17  11  15  293.27   18.20
 -15  17  11  302.87   18.10
  17 -11  15  337.17   18.50
  17 -13  15  719.73   37.50
  15 -17  13  656.33   37.20
  13 -15  17  622.64   37.20
 -15  17  13  715.53   37.40
 -17  13  15  705.33   37.40
 -17  15  15 1369.66   69.59
 -15  15  17 1298.57   69.49
 -15  17  15 1281.37   69.39
  15 -17  15 1252.07   69.39
  15 -15  17 1294.87   69.49
  17 -15  15 1337.17   69.59
 -17  17   1   48.60    5.60
 -17   1  17   51.49    5.10
 -17  17  -1   47.90    5.40
 -17  -1  17   54.19    4.80
 -17   3  17 1305.47   71.19
  17  -3  17 1477.75   71.59
 -17  17   3 1468.95   71.59
 -17  17  -3 1145.19   71.19
  17  -5  17 3109.19  170.98
 -17  17   5 3512.05  171.18
 -17  17  -5 3202.58  170.98
 -17   7  17 1928.01  108.89
  17  -7  17 2003.00  108.99
 -17  17   7 2116.99  109.09
 -17  17  -7 2247.88  109.19
 -17   9  17  470.65   26.60
  17  17  -9  463.75   25.70
 -17  17   9  469.65   26.60
  17  -9  17  466.95   26.80
 -17  17  -9  513.35   26.90
 -17  11  17  500.95   28.20
 -17  17  11  507.45   28.20
  17 -17  11  491.45   28.10
  17 -11  17  517.05   28.40
 -17  13  17 1004.10   53.29
 -17  17  13  949.90   53.09
  13 -17  17  958.10   53.19
  17 -17  13 1021.90   53.29
  17 -13  17 1018.10   53.39
 -17  15  17 1792.42   96.59
 -17  17  15 1903.61   96.69
 -15  17  17 1827.12   96.69
  15 -17  17 1791.72   96.69
  17 -17  15 1781.92   96.59
  17 -15  17 1881.61   96.79
 -17  17  17 1772.62   94.89
  17 -17  17 1814.42   94.99
  18   0   0 2092.59  109.49
  18   2   0  445.66   24.00
  18  -2   0  428.46   24.00
  18   4   0  458.25   25.90
  18  -4   0  489.35   26.00
  18  -6   0  479.85   27.00
   0  18  -6  483.95   26.70
  18   6   0  491.75   27.00
 -18   6   0  522.75   27.10
  18  -8   0   84.59    6.30
   0  18  -8   85.79    5.80
 -18   8   0   76.29    6.20
   0  18 -10  590.84   31.20
 -18  10   0  603.54   31.70
  18 -10   0  548.95   31.50
 -18  12   0  340.17   19.90
   0  18 -12  333.47   19.20
 -12   0  18  376.86   19.30
 -18  14   0    6.60    2.90
 -14   0  18    6.70    2.30
 -18  16   0   31.70    4.40
 -16   0  18   28.00    3.40
  18   0   2  421.56   22.90
  18   0  -2  406.46   22.80
  18   2  -2    3.80    2.10
  18  -2   2    3.70    2.20
  18  -2  -2    0.70    2.00
  18   2   2    0.00    2.10
 -18   4   2  810.02   43.50
  18   4  -2  834.52   43.50
  18  -4   2  819.92   43.60
  -2  18  -4  810.02   43.30
  18  -4  -2  801.62   43.50
  18   4   2  814.82   43.50
 -18   6   2  926.81   46.60
  18  -6   2  853.31   46.50
  18   6  -2  843.32   46.40
  -2  18  -6  863.91   46.30
  18  -6  -2  876.91   46.50
   2  18  -8   40.40    3.90
 -18   8   2   44.60    4.60
  18  -8   2   47.70    4.70
  18   8  -2   46.40    4.60
  -2  18  -8   35.60    4.30
  18  -8  -2   40.50    4.60
 -18   8  -2   41.40    4.70
 -18  10   2  147.59    9.10
   2  18 -10  134.89    8.30
  18 -10   2  126.89    8.90
  -2  18 -10  138.59    8.50
 -10  -2  18  135.29    7.90
 -18  10  -2  125.69    8.80
   2  18 -12    6.70    2.00
 -18  12   2    9.60    3.10
 -12   2  18    6.80    2.20
  18 -12   2    7.80    2.80
 -12  -2  18    8.70    2.00
  -2  18 -12    6.40    2.30
 -18  12  -2    6.60    2.90
 -14   2  18  305.37   17.30
 -18  14   2  323.77   17.80
 -18  14  -2  279.67   17.60
 -14  -2  18  313.87   16.80
 -18  16   2  522.25   27.80
 -16   2  18  499.65   27.40
 -18  16  -2  519.05   27.80
 -16  -2  18  467.25   26.90
  18   0   4  465.25   25.80
  18   0  -4  478.75   25.70
  18  -2   4  788.92   42.60
  18   2  -4  808.12   42.40
  18   2   4  784.62   42.50
  -4  18  -2  769.62   42.40
  18  -2  -4  827.62   42.50
 -18   4   4 1716.73   90.69
  18  -4   4 1659.43   90.69
  18   4  -4 1801.12   90.59
  18  -4  -4 1738.43   90.69
  -4  18  -4 1728.43   90.59
 -18   6   4 2636.64  132.79
  18  -6   4 2415.66  132.79
  18   6  -4 2548.34  132.59
  -4  18  -6 2595.04  132.69
  18  -6  -4 2505.85  132.69
  18  -8   4  644.44   36.60
   4  18  -8  671.23   36.10
  18   8  -4  722.43   36.50
 -18   8   4  643.14   36.60
  -4  18  -8  668.43   36.50
  -8  -4  18  722.43   35.70
 -18  10   4   19.70    3.30
  18 -10   4   23.70    3.60
   4  18 -10   18.50    2.50
  18  10  -4   23.60    3.20
  -4  18 -10   18.80    3.00
 -18  10  -4   24.20    3.80
 -10  -4  18   24.60    2.30
 -12   4  18  150.38    9.80
 -18  12   4  160.58   10.20
  18 -12   4  152.58   10.10
   4  18 -12  165.58    9.10
  12  -4  18  158.18   10.20
 -12  -4  18  165.58    8.70
  -4  18 -12  141.49    9.70
 -18  12  -4  150.08   10.00
  14  -4  18 1318.27   73.29
 -18  14   4 1454.95   73.39
 -14   4  18 1360.06   73.09
 -18  14  -4 1414.26   73.39
 -18  16   4 2371.56  119.79
 -16   4  18 2132.09  119.59
  16  -4  18 2347.97  119.89
 -18  16  -4 2282.37  119.79
  -6  18   0  515.05   26.70
  18   0   6  434.76   26.60
  18   0  -6  516.25   26.60
 -18   2   6  850.01   46.00
  18   2  -6  899.31   45.90
  18  -2   6  873.91   46.10
  18   2   6  841.22   46.10
  18  -2  -6  882.61   46.00
  -6  18  -2  836.52   46.00
 -18   4   6 2549.94  135.19
  18  -4   6 2651.14  135.29
  -6  18  -4 2563.94  135.19
   6  -6  18 3237.38  159.58
  18  -6   6 2918.31  159.58
  18   6  -6 2879.61  159.28
 -18   6   6 3210.08  159.68
  -6  18  -6 3054.69  159.58
 -18   8   6 1135.09   59.19
   8  -6  18 1091.99   59.09
  18  -8   6 1136.49   59.29
  18   8  -6 1123.59   58.79
  -6  18  -8 1088.99   58.99
  18  10  -6   69.59    5.50
   6  18 -10   75.09    4.90
  18 -10   6   69.29    6.10
  10  -6  18   70.79    6.10
 -18  10   6   70.89    6.00
  -6  18 -10   57.59    5.70
   6  18 -12   46.90    3.50
 -18  12   6   49.60    5.30
  18  12  -6   45.60    4.60
  12  -6  18   51.29    5.50
  18 -12   6   40.70    5.00
  -6  18 -12   48.00    5.00
  18  14  -6 1499.45   74.99
  18 -14   6 1426.26   75.29
 -18  14   6 1449.15   75.29
 -14   6  18 1324.97   75.09
  14  -6  18 1460.55   75.39
 -18  14  -6 1379.66   75.29
  16  -6  18 2855.61  138.49
 -16   6  18 2400.36  138.09
 -18  16   6 2757.72  138.39
 -18  16  -6 2551.44  138.29
   0  -8  18  106.29    5.90
  18   0   8   74.79    6.40
  -8  18   0   84.29    6.50
  18  -2   8   44.70    4.80
  18   2  -8   48.10    4.30
  -8  18   2   45.20    4.70
 -18   2   8   53.29    4.60
   2  -8  18   43.20    4.00
  -8  18  -2   41.00    4.50
  -2  -8  18   43.50    3.40
  18   4  -8  669.13   37.10
  18  -4   8  671.83   37.50
 -18   4   8  664.63   37.40
   4  -8  18  777.62   37.30
  -4  -8  18  781.02   36.30
  -8  18  -4  604.54   37.40
  18  -6   8 1062.39   60.19
 -18   6   8 1184.68   60.29
  18   6  -8 1151.88   59.79
   6  -8  18 1164.38   60.09
  -8  18  -6 1116.99   60.19
   8  -8  18    5.60    2.60
  18  -8   8    3.20    2.50
  18   8  -8    1.10    2.00
 -18   8   8    3.30    2.50
  -8  18  -8    4.80    2.60
  10  -8  18  122.79    9.60
  18 -10   8  147.79    9.80
   8  18 -10  160.48    8.70
 -18  10   8  163.38   10.00
  18  10  -8  160.38    9.20
  -8  18 -10  137.99    9.70
   8  18 -12  125.09    6.80
 -18  12   8  123.09    8.60
  18 -12   8  118.09    8.70
  18  12  -8  125.79    7.80
  12  -8  18  127.39    8.80
  -8  18 -12  107.89    8.50
  14  -8  18  399.76   22.40
  18 -14   8  378.56   22.20
 -18  14   8  437.26   22.50
  18  14  -8  390.66   21.50
 -14   8  18  359.96   22.10
  18  16  -8 1003.60   53.09
  16  -8  18  957.00   53.79
 -16   8  18  957.60   53.59
 -18  16  -8 1098.29   53.99
   0 -10  18  578.24   30.00
 -18   0  10  558.04   30.40
  18   0  10  528.15   30.60
 -10  18   0  587.84   30.70
   2 -10  18  132.29    8.20
 -10  18   2  125.99    8.70
  18  -2  10  131.99    9.00
 -18   2  10  130.69    8.60
  -2 -10  18  142.09    7.60
 -10  18  -2  132.99    8.90
 -10  18   4   23.90    3.60
  18  -4  10   29.20    3.80
   4 -10  18   22.20    3.00
 -18   4  10   20.60    3.20
 -10  18  -4   22.50    3.40
  18   6 -10   67.19    5.20
 -10  18   6   70.39    5.90
 -18   6  10   64.59    5.90
  18  -6  10   75.09    6.20
   6 -10  18   73.59    5.70
 -10  18  -6   65.19    6.00
   8 -10  18  166.58   10.30
  18   8 -10  163.68    9.50
 -18   8  10  154.68   10.30
  18  -8  10  161.38   10.50
 -10  18  -8  154.78   10.40
  10 -10  18  798.52   43.60
  18  10 -10  814.62   42.80
 -18  10  10  867.11   43.80
  18 -10  10  804.62   43.80
 -10  18 -10  768.52   43.50
 -18  12  10  398.66   23.40
  12 -10  18  407.66   23.30
  18  12 -10  448.16   22.40
  18 -12  10  416.36   23.40
 -10  18 -12  393.96   23.30
  18  14 -10   28.10    3.00
 -14  10  18   22.80    3.90
  14 -10  18   28.70    4.40
  18 -14  10   31.90    4.50
 -18  14  10   27.90    4.50
  18 -16  10  252.27   15.50
 -18  16  10  263.07   15.70
 -16  10  18  249.58   15.50
  16 -10  18  261.57   15.70
  18  16 -10  253.37   14.30
  18   0  12  367.06   20.80
 -18   0  12  343.27   20.30
 -12  18   0  376.36   20.90
   0 -12  18  386.46   19.90
   2 -12  18    6.20    2.10
 -18   2  12    6.70    2.60
  18  -2  12    9.00    2.80
 -12  18   2    7.00    2.80
 -12  18  -2    7.20    2.90
 -12  18   4  155.78    9.80
 -18   4  12  143.39    9.60
   4 -12  18  155.58    9.30
  18  -4  12  141.39    9.80
 -12  18  -4  153.28    9.80
 -12  18   6   50.29    5.30
  18  -6  12   49.30    5.40
 -18   6  12   43.10    5.10
   6 -12  18   43.00    4.90
 -12  18  -6   49.10    5.30
  18  -8  12  130.39    8.90
 -12  18   8  128.39    8.80
 -18   8  12  122.59    8.80
 -12  18  -8  120.39    8.80
 -18  10  12  355.56   23.00
 -12  18  10  423.06   23.10
  10 -12  18  389.06   23.10
  18 -10  12  446.16   23.40
 -12  18 -10  436.56   23.20
  12 -12  18  194.48   13.10
  18 -12  12  216.78   13.20
 -18  12  12  212.68   13.20
  18 -14  12   16.00    3.80
 -18  14  12   16.10    3.80
  14 -12  18   17.40    4.20
 -14  12  18   18.10    3.90
 -18  16  12  517.95   28.00
 -16  12  18  496.55   27.90
  18 -16  12  508.15   28.00
  16 -12  18  468.75   28.10
 -14  18   0   11.70    3.10
 -18   0  14    7.50    2.40
 -14  18   2  320.07   17.60
 -18   2  14  272.97   17.00
  18  -2  14  295.97   17.50
 -14  18  -2  314.27   17.50
  18  -4  14 1468.75   75.79
 -18   4  14 1295.47   75.49
   4 -14  18 1441.96   75.29
 -14  18   4 1494.95   75.79
 -14  18  -4 1462.85   75.79
   6 -14  18 1268.67   72.49
  18  -6  14 1366.76   72.99
 -18   6  14 1364.06   72.89
 -14  18   6 1436.86   72.99
 -14  18  -6 1457.05   73.09
 -18   8  14  383.46   22.20
   8 -14  18  345.77   21.80
 -14  18   8  398.76   22.10
  18  -8  14  407.06   22.30
 -14  18  -8  417.66   22.30
 -18  10  14   32.90    4.60
 -14  18  10   30.10    4.40
  18 -10  14   25.00    4.30
  10 -14  18   24.30    4.20
 -14  18 -10   25.00    4.40
  12 -14  18   14.00    3.70
 -14  18  12   13.90    3.60
  18 -12  14   13.20    3.70
 -18  12  14   14.80    3.70
  18 -14  14  550.44   30.20
 -14  14  18  564.24   30.20
 -18  14  14  537.85   30.10
 -14  18  14  534.35   30.00
  14 -14  18  514.15   30.10
  18 -16  14 1245.88   66.19
 -16  14  18 1265.97   66.19
  16 -14  18 1271.77   66.29
  14 -18  16 1125.59   65.99
 -14  18  16 1272.07   66.19
 -18  16  14 1257.77   66.19
 -18   0  16   27.60    3.50
 -16  18   0   32.80    4.20
 -18   2  16  438.06   25.80
  18  -2  16  462.25   26.20
 -16  18   2  503.85   26.30
 -16  18  -2  479.05   26.20
 -18   4  16 1779.72  105.09
  18  -4  16 2236.08  105.69
 -16  18   6 2705.83  139.29
  18  -6  16 2734.53  139.39
 -18   6  16 2524.95  139.19
 -16  18  -6 2676.83  139.39
  18  -8  16  996.70   52.89
 -16  18   8 1023.40   52.79
   8 -16  18  958.80   52.49
 -18   8  16  921.61   52.79
 -16  18  -8 1024.80   52.89
  18 -10  16  270.47   16.20
  16  18 -10  279.07   14.70
  10 -16  18  241.68   15.80
 -16  18  10  266.67   16.00
 -18  10  16  267.77   16.10
  18 -12  16  525.55   28.80
  12 -16  18  503.05   28.40
 -16  18  12  516.85   28.50
 -18  12  16  491.95   28.50
  16 -18  14 1197.28   65.49
  18 -14  16 1236.88   65.59
 -14  16  18 1248.28   65.59
  14 -16  18 1182.58   65.49
 -18  14  16 1239.98   65.59
 -16  18  14 1263.77   65.59
 -18  16  16 1844.62   96.39
 -16  16  18 1838.02   96.39
 -16  18  16 1917.11   96.49
  16 -18  16 1743.53   96.29
  16 -16  18 1736.43   96.29
  18 -16  16 1858.91   96.49
 -18   0  18    1.20    2.40
 -18  18   0    0.60    2.80
 -18   2  18  279.07   16.70
  18  -2  18  289.07   17.20
 -18  18   2  272.97   16.90
 -18  18  -2  318.07   17.30
 -18   4  18  881.21   53.09
  18  -4  18 1057.39   53.59
 -18  18   4 1055.79   53.49
 -18  18  -4  997.50   53.49
 -18   6  18 1027.50   57.59
  18  -6  18 1006.80   57.59
 -18  18   6 1232.08   57.89
 -18  18  -6 1049.49   57.59
 -18   8  18  246.38   14.80
  18  18  -8  239.78   13.90
 -18  18   8  198.48   14.40
  18  -8  18  235.18   14.80
 -18  18  -8  270.67   15.00
 -18  10  18   28.20    4.40
 -18  18  10   29.00    4.40
  18 -10  18   37.60    5.10
  18  18 -10   31.10    3.80
 -18  12  18   75.49    7.50
 -18  18  12   80.09    7.50
  12 -18  18   76.29    7.60
  18 -12  18   61.99    7.70
 -18  14  18  701.03   37.60
 -18  18  14  668.23   37.40
 -14  18  18  699.23   37.50
  14 -18  18  672.03   37.40
  18 -18  14  681.93   37.50
  18 -14  18  651.43   37.40
 -18  16  18 1104.69   60.59
 -18  18  16 1142.99   60.59
 -16  18  18 1140.09   60.59
  16 -18  18 1112.29   60.59
  18 -18  16 1116.19   60.59
  18 -16  18 1146.89   60.69
 -18  18  18  293.97   18.20
  18 -18  18  291.37   18.30
  19   1  -1 1927.31   99.49
  19  -1   1 1800.52   99.39
  19  -1  -1 2004.70   99.49
  19   1   1 1855.51   99.39
  19  -3   1   65.09    5.70
  19   3  -1   71.89    5.70
  19   3   1   68.99    5.70
  19  -3  -1   68.19    5.70
  19   5  -1  200.98   11.50
  19  -5   1  195.48   11.60
  -1  19  -5  184.38   11.20
  19   5   1  189.48   11.50
  19  -5  -1  175.58   11.40
  19   7  -1   11.90    2.70
 -19   7   1   20.50    3.30
   1  19  -7   16.60    2.60
  19  -7   1   16.90    3.10
  -1  19  -7   17.90    2.80
  19  -7  -1   13.50    2.90
  19  -9   1  353.46   20.50
   1  19  -9  355.46   20.20
 -19   9   1  373.36   20.70
  19  -9  -1  350.96   20.50
  -1  19  -9  378.96   20.30
 -19   9  -1  383.16   20.70
   1  19 -11  784.92   41.20
 -19  11   1  742.03   41.60
 -11   1  19  745.43   41.20
  19 -11   1  771.22   41.70
 -19  11  -1  778.82   41.70
  -1  19 -11  808.82   41.40
 -11  -1  19  791.72   41.00
 -19  13   1  245.08   13.80
   1  19 -13  216.58   12.80
 -13   1  19  226.28   13.10
  -1  19 -13  244.68   13.10
 -19  13  -1  230.38   13.70
 -13  -1  19  191.38   12.80
 -15   1  19    0.30    2.30
 -19  15   1    1.70    2.90
 -15  -1  19    0.80    2.10
 -19  15  -1    0.60    2.80
 -19  17   1   65.49    6.30
 -17   1  19   57.19    5.60
 -19  17  -1   60.09    6.10
 -17  -1  19   58.29    5.20
  19  -1   3   63.89    5.70
  19   1  -3   75.19    5.80
  19  -1  -3   71.79    5.70
  19   1   3   70.99    5.80
  19  -3   3   54.89    5.10
  19   3  -3   63.29    5.20
  19   3   3   60.29    5.40
  -3  19  -3   59.59    5.10
  19  -3  -3   51.39    5.00
  19  -5   3  407.56   22.60
 -19   5   3  393.86   22.40
  19   5  -3  434.06   22.40
  -3  19  -5  387.66   22.20
  19   5   3  401.86   22.50
  19  -5  -3  395.76   22.40
  19  -7   3   70.89    6.00
  19   7  -3   72.69    5.80
 -19   7   3   75.59    6.00
   3  19  -7   69.49    5.30
  19  -7  -3   68.99    5.90
  -3  19  -7   74.79    5.80
  19   9  -3   19.30    3.20
   3  19  -9   28.70    3.20
 -19   9   3   21.40    3.40
  19  -9   3   30.90    4.00
  -3  19  -9   23.30    3.30
  -9  -3  19   23.40    2.70
 -19  11   3  227.28   13.00
   3  19 -11  239.48   12.20
  19 -11   3  215.48   12.90
  -3  19 -11  206.18   12.50
 -19  11  -3  208.68   12.90
 -11  -3  19  178.88   11.70
  19 -13   3   18.40    3.40
 -13   3  19   12.90    2.90
 -19  13   3   19.10    3.70
   3  19 -13   23.00    2.70
 -19  13  -3   24.60    3.80
  -3  19 -13   14.70    3.00
 -13  -3  19   24.60    2.80
 -19  15   3  471.15   26.00
  15  -3  19  459.15   26.10
 -15   3  19  457.75   25.70
 -19  15  -3  476.45   26.10
 -15  -3  19  466.45   25.00
  17  -3  19  705.73   37.40
 -19  17   3  665.03   37.10
 -17   3  19  668.43   36.90
 -19  17  -3  691.03   37.30
  19   1  -5  194.28   11.70
  19  -1   5  197.48   12.00
  19  -1  -5  190.58   11.70
  19   1   5  195.88   12.00
  -5  19  -1  207.18   11.80
  19  -3   5  388.16   22.00
 -19   3   5  397.06   21.90
  19  -3  -5  416.46   22.00
  19   3   5  389.26   22.10
  -5  19  -3  386.26   21.90
  19   5  -5 1173.28   58.69
 -19   5   5 1117.69   58.79
  19  -5   5 1028.80   58.79
  -5  19  -5 1118.89   58.79
  19   7  -5  527.35   29.00
 -19   7   5  571.24   29.40
  -5  19  -7  508.05   29.10
   9  -5  19  107.49    7.70
 -19   9   5  112.89    7.70
  19   9  -5  104.19    7.30
  19  -9   5  111.19    7.60
   5  19  -9  103.89    6.80
  -5  19  -9   89.19    7.30
  -9  -5  19  110.19    5.90
  19 -11   5  125.79    8.30
 -19  11   5  129.09    8.40
   5  19 -11  110.69    7.10
  11  -5  19  118.19    8.30
  19  11  -5  112.59    7.80
  -5  19 -11   94.19    7.80
  19 -13   5   94.99    7.40
   5  19 -13  100.19    6.00
 -13   5  19   87.39    7.10
 -19  13   5   94.19    7.60
  19  13  -5  100.39    7.20
  13  -5  19   97.29    7.60
 -19  13  -5  104.89    7.60
  -5  19 -13   77.79    7.10
 -19  15   5 1258.37   66.39
  15  -5  19 1309.87   66.59
 -15   5  19 1129.09   66.09
 -19  15  -5 1306.57   66.49
 -17   5  19 1327.97   72.09
 -19  17   5 1348.17   72.09
  17  -5  19 1358.96   72.19
 -19  17  -5 1401.46   72.19
   1  -7  19   16.00    2.40
  19  -1   7   13.00    2.90
  19   1  -7   18.70    2.90
  -7  19   1   11.20    2.70
  -7  19  -1   17.00    3.10
  19  -1  -7   17.00    2.90
  19   1   7   17.20    3.20
  -1  -7  19   12.90    2.10
  19   3  -7   75.09    5.80
 -19   3   7   72.59    6.00
   3  -7  19   79.29    5.80
  19  -3   7   75.39    6.30
  -3  -7  19   82.29    4.90
  -7  19  -3   68.59    5.90
   5  -7  19  541.35   28.80
 -19   5   7  538.25   28.90
  19   5  -7  554.84   28.70
  19  -5   7  509.05   28.90
  -5  -7  19  505.05   27.90
 -19   7   7   83.89    6.50
  19  -7   7   75.19    6.50
   7  -7  19   82.79    6.40
  19   7  -7   80.19    6.00
  -7  19  -7   75.89    6.30
 -19   9   7   10.80    3.00
   9  -7  19    7.40    2.80
  19   9  -7   13.00    2.60
   7  19  -9   10.20    2.10
  19  -9   7   13.20    3.30
  -7  19  -9   11.40    3.00
   7  19 -11  467.15   22.80
  19 -11   7  434.16   23.80
  19  11  -7  419.36   23.30
 -19  11   7  441.96   23.80
  11  -7  19  392.96   23.70
  -7  19 -11  385.76   23.50
  13  -7  19    1.30    2.90
  19 -13   7    0.10    2.80
 -19  13   7    1.10    2.80
  19  13  -7    0.60    2.30
  -7  19 -13    1.60    2.70
  15  -7  19  761.42   41.30
  19  15  -7  793.42   40.70
 -15   7  19  666.63   40.90
 -19  15   7  805.92   41.30
  19 -15   7  772.62   41.20
  17  -7  19  748.63   41.40
 -17   7  19  704.43   41.20
 -19  17   7  768.02   41.30
  19  17  -7  813.82   40.90
 -19  17  -7  766.32   41.40
  19  -1   9  352.36   20.60
  -9  19   1  351.76   20.50
 -19   1   9  351.26   20.30
   1  -9  19  371.46   20.00
  -1  -9  19  415.86   19.80
  -9  19  -1  376.76   20.60
  19   1   9  334.07   20.50
  19  -3   9   20.00    3.40
  19   3  -9   20.30    2.90
   3  -9  19   23.80    3.00
  -9  19   3   21.70    3.30
 -19   3   9   30.10    3.70
  -3  -9  19   22.40    2.20
  -9  19  -3   22.90    3.60
   5  -9  19  106.29    7.30
  19  -5   9  109.99    7.80
 -19   5   9  106.69    7.60
  -9  19   5  110.99    7.70
  19   5  -9   99.69    7.10
  -9  19  -5  104.29    7.60
 -19   7   9   10.20    3.00
   7  -9  19    8.50    2.70
  19  -7   9   10.30    2.90
  19   7  -9   12.20    2.50
  -9  19  -7   13.70    3.10
 -19   9   9  381.56   21.90
   9  -9  19  373.06   21.90
  19   9  -9  392.96   21.30
  -9  19  -9  411.16   22.00
  19 -11   9 1353.16   72.69
 -19  11   9 1448.36   72.79
  11  -9  19 1333.87   72.69
   9  19 -11 1427.56   71.59
  19  11  -9 1372.06   72.09
  -9  19 -11 1299.57   72.59
  19 -13   9  235.88   13.90
 -19  13   9  240.18   14.00
  13  -9  19  193.68   13.70
  19  13  -9  229.18   13.00
 -19  15   9  153.48   10.30
 -15   9  19  142.69   10.20
  19 -15   9  144.59   10.20
  19  15  -9  153.38    9.20
  15  -9  19  137.39   10.30
  17  -9  19   99.69    8.30
 -17   9  19  101.09    8.20
 -19  17   9   97.29    8.30
  19  17  -9  100.69    7.10
 -19   1  11  726.93   41.00
 -11  19   1  733.83   41.20
   1 -11  19  782.62   40.70
  19  -1  11  777.92   41.40
 -11  19  -1  835.62   41.50
  -1 -11  19  794.82   40.40
  19   1  11  725.03   41.30
  19  -3  11  205.68   12.40
   3 -11  19  163.58   11.70
 -19   3  11  210.18   12.20
 -11  19   3  199.58   12.20
 -11  19  -3  233.08   12.50
  19  -5  11  114.19    8.20
 -19   5  11  100.99    7.90
 -11  19   5  119.49    8.10
   5 -11  19  115.79    7.80
 -11  19  -5  113.19    8.00
   7 -11  19  429.56   23.70
 -11  19   7  432.56   23.80
 -19   7  11  420.76   23.80
  19  -7  11  433.66   23.90
 -11  19  -7  411.16   23.80
  19  -9  11 1442.46   74.69
   9 -11  19 1377.96   74.49
 -19   9  11 1444.66   74.59
 -11  19  -9 1372.56   74.59
  11  19 -11 2068.09  104.19
  19  11 -11 2056.59  104.49
  11 -11  19 1693.93  105.19
 -19  11  11 2110.19  105.49
  19 -11  11 2049.70  105.49
 -11  19 -11 2048.50  105.49
 -19  13  11  567.84   30.00
  13 -11  19  549.65   29.90
  19  13 -11  519.25   28.60
  19 -13  11  515.95   29.70
  19  15 -11    3.10    1.80
 -19  15  11    0.10    3.10
  15 -11  19    2.10    3.50
  19 -15  11    2.40    3.30
 -15  11  19    1.20    3.10
 -19  17  11   14.10    4.00
 -17  11  19   14.30    3.70
  17 -11  19   13.90    4.00
  19 -17  11   21.00    4.40
 -19   1  13  212.48   13.20
 -13  19   1  225.08   13.60
   1 -13  19  234.88   12.70
  19  -1  13  211.48   13.50
 -13  19  -1  233.28   13.70
   3 -13  19   19.30    2.80
  19  -3  13   16.10    3.50
 -13  19   3   24.40    3.70
 -19   3  13   14.90    3.20
 -13  19  -3   19.30    3.60
 -19   5  13   81.49    7.50
   5 -13  19   99.99    7.20
 -13  19   5   99.69    7.60
  19  -5  13  117.29    7.90
 -13  19  -5  107.29    7.90
 -19   7  13   -0.80    2.70
  19  -7  13   -0.80    2.90
   7 -13  19    1.60    2.50
 -13  19   7   -0.90    2.80
 -13  19  -7    2.80    3.00
   9 -13  19  208.58   13.40
 -13  19   9  225.98   13.50
 -19   9  13  240.08   13.80
  19  -9  13  229.88   13.60
 -13  19  -9  190.78   13.40
  13  19 -11  533.35   26.70
 -19  11  13  546.75   28.50
  19 -11  13  531.25   28.50
  11 -13  19  418.16   28.00
 -13  19  11  517.55   28.20
 -13  19 -11  492.35   28.30
  13 -13  19   95.89    8.70
 -19  13  13   96.29    8.40
  19 -13  13  114.39    8.60
 -13  19  13  117.29    8.50
 -19  15  13  227.58   14.30
  19 -15  13  217.48   14.10
  15 -13  19  210.98   14.30
 -15  13  19  232.08   14.20
 -17  13  19  223.88   14.50
  19 -17  13  228.28   14.40
  17 -13  19  228.78   14.80
 -19  17  13  217.98   14.30
 -19   1  15    0.60    2.30
 -15  19   1    1.10    2.80
  19  -1  15    0.00    2.70
 -15  19  -1    0.10    2.70
 -19   3  15  385.96   23.50
  19  -3  15  453.45   23.90
 -15  19   3  425.46   23.80
 -15  19  -3  423.06   23.70
 -15  19   5 1329.77   67.29
   5 -15  19 1276.97   66.79
 -19   5  15 1100.99   66.89
  19  -5  15 1283.97   67.29
 -15  19  -5 1339.87   67.29
 -19   7  15  765.92   42.20
   7 -15  19  724.33   41.90
 -15  19   7  812.42   42.30
  19  -7  15  792.22   42.30
 -15  19  -7  810.82   42.30
 -19   9  15  141.29   10.20
   9 -15  19  138.69    9.80
  19  -9  15  143.99   10.10
 -15  19   9  135.69    9.80
 -15  19  -9  158.78   10.20
 -19  11  15   -1.60    3.00
 -15  19  11    1.60    3.00
  11 -15  19    3.10    3.30
  19 -11  15    1.00    3.40
  13 -15  19  177.08   13.10
  19 -13  15  198.88   13.20
 -19  13  15  214.58   13.30
 -15  19  13  222.68   13.30
  15 -15  19  752.52   43.30
 -15  19  15  797.62   43.30
 -19  15  15  799.92   43.40
 -15  15  19  819.32   43.40
  19 -15  15  804.32   43.40
 -17  15  19  918.11   49.90
 -19  17  15  934.01   49.90
 -15  19  17  921.31   49.80
  17 -15  19  898.91   49.90
  19 -17  15  926.81   49.90
 -19   1  17   51.99    5.50
  19  -1  17   55.19    6.30
 -17  19   1   66.29    6.20
 -17  19  -1   52.49    6.00
 -19  -1  17   58.19    5.30
  19  -3  17  683.93   37.10
 -17  19   3  696.53   37.10
 -19   3  17  603.04   36.70
 -17  19  -3  738.53   37.20
  19  -5  17 1338.67   68.99
 -19   5  17 1271.57   68.79
 -17  19   5 1188.48   68.79
 -17  19  -5 1386.46   68.99
  19  -7  17  768.02   42.80
 -19   7  17  757.02   42.80
 -17  19   7  844.42   42.90
 -17  19  -7  789.72   42.90
   9 -17  19   92.99    7.80
 -17  19   9   97.39    7.90
 -19   9  17   66.59    7.80
  19  -9  17  108.39    8.20
  17  19  -9   96.49    6.80
 -17  19  -9  102.29    8.30
  19 -11  17   18.30    4.40
 -17  19  11   21.10    4.30
 -19  11  17   20.60    4.60
  11 -17  19   13.70    3.80
  19 -13  17  229.18   14.70
  13 -17  19  216.28   14.40
 -17  19  13  229.18   14.40
 -19  13  17  224.88   14.50
  19 -15  17  961.50   50.19
  15 -17  19  881.51   50.09
 -15  17  19  926.51   50.09
 -17  19  15  913.31   49.99
 -19  15  17  941.31   50.19
 -19  17  17  691.73   38.20
 -17  17  19  707.13   38.30
 -17  19  17  708.03   38.20
  17 -17  19  667.03   38.30
  19 -17  17  681.13   38.30
  19  -1  19  395.56   23.60
 -19   1  19  403.66   23.20
 -19  19   1  449.16   23.70
 -19  19  -1  396.46   23.50
 -19  -1  19  428.76   23.00
 -19   3  19   91.69    7.50
  19  -3  19   85.39    7.50
 -19  19   3   87.99    7.50
 -19  19  -3   86.29    7.60
 -19   5  19   12.00    3.80
  19  -5  19   11.20    4.00
 -19  19   5   12.60    3.60
 -19  19  -5   12.50    3.80
 -19   7  19    6.00    3.70
  19  -7  19    0.80    3.60
 -19  19   7    5.70    3.50
 -19  19  -7    4.10    3.50
 -19   9  19   91.39    8.10
 -19  19   9   71.59    7.50
  19  -9  19   86.19    8.10
  19  19  -9   76.99    6.50
 -19  11  19  358.26   20.90
 -19  19  11  342.57   20.60
  19 -11  19  353.06   20.90
 -19  13  19   36.30    5.50
 -19  19  13   29.10    4.80
  19 -13  19   31.80    5.40
 -19  15  19  139.99   11.50
 -19  19  15  144.29   11.40
 -15  19  19  161.58   11.60
  19 -15  19  171.98   12.10
 -19  17  19   61.99    7.40
 -19  19  17   57.09    7.00
 -17  19  19   44.30    6.40
  17 -19  19   61.19    7.30
  19 -19  17   64.69    7.40
  19 -17  19   52.39    6.90
 -19  19  19  161.08   12.30
  19 -19  19  154.98   12.60
  20   0   0 4993.00  259.57
  20   2   0 2212.28  119.99
  20  -2   0 2374.46  120.09
  20  -4   0  133.99    8.90
  20   4   0  131.29    8.80
   0  20  -6  124.39    8.30
  20  -6   0  128.99    8.70
  20   6   0  132.79    8.70
   0  20  -8  341.77   20.80
  20  -8   0  390.36   21.30
 -20   8   0  399.96   21.40
  20   8   0  380.46   21.20
  20 -10   0 1160.78   63.79
   0  20 -10 1206.48   63.49
 -20  10   0 1245.88   63.99
   0  20 -12 1217.68   71.79
 -20  12   0 1524.05   72.59
 -12   0  20 1366.86   71.79
 -20  14   0  389.46   21.80
   0  20 -14  379.16   21.20
 -16   0  20    1.80    2.40
 -20  16   0   -1.60    3.00
 -18   0  20  334.77   19.20
 -20  18   0  344.67   19.70
  20   0   2 2238.58  119.89
  20   0  -2 2345.07  119.99
  20   2  -2 1048.70   52.49
  20  -2   2  977.30   52.49
  20  -2  -2  946.71   52.39
  20   2   2  972.20   52.49
  20  -4   2   53.59    5.30
  20   4  -2   49.30    5.00
  -2  20  -4   46.70    4.80
  20   4   2   52.49    5.20
  20  -4  -2   50.69    5.10
   2  20  -6   87.09    6.40
  20   6  -2   95.69    6.90
  20  -6   2   97.79    6.90
 -20   6   2  103.89    7.10
  -2  20  -6   82.39    6.50
  20   6   2   83.99    6.80
  20  -6  -2   86.99    6.80
  20   8  -2  166.88   10.70
   2  20  -8  163.08   10.30
  20  -8   2  180.58   10.90
 -20   8   2  189.28   10.90
  20  -8  -2  158.78   10.70
  20  10  -2  984.00   54.19
   2  20 -10 1012.40   53.89
 -20  10   2 1024.10   54.39
  20 -10   2 1023.70   54.39
 -20  10  -2 1066.59   54.49
 -10  -2  20 1088.59   53.69
  -2  20 -10  938.21   53.99
   2  20 -12 1153.08   54.89
 -20  12   2 1020.40   55.39
 -12   2  20  952.90   54.99
  20 -12   2 1048.90   55.39
 -12  -2  20 1051.49   54.69
 -20  12  -2 1068.29   55.49
  -2  20 -12  976.90   54.99
 -14   2  20  148.79    9.50
 -20  14   2  133.79    9.70
 -14  -2  20  148.39    8.80
 -20  14  -2  151.88   10.00
  -2  20 -14  141.59    9.40
 -16   2  20   25.50    3.90
 -20  16   2   28.10    4.30
 -16  -2  20   29.40    3.40
 -20  16  -2   32.00    4.50
  18  -2  20  116.69    9.20
 -20  18   2  126.89    9.20
 -18   2  20  119.89    8.80
 -20  18  -2  126.09    9.10
  20   0   4  131.09    9.00
  20   0  -4  142.99    9.00
  20  -2   4   50.09    5.10
  20   2  -4   38.90    4.80
  20   2   4   53.99    5.00
  20  -2  -4   48.90    4.90
  -4  20  -2   43.20    4.70
  20  -4   4   10.20    2.80
 -20   4   4    9.30    2.70
  20   4  -4   11.00    2.70
  -4  20  -4   10.10    2.80
  20   4   4    9.30    2.80
  20  -4  -4   15.00    3.00
  20   6  -4   40.70    4.40
  20  -6   4   21.50    3.70
 -20   6   4   37.00    4.50
  -4  20  -6   32.60    3.80
  20  -6  -4   40.60    4.30
  20  -8   4   29.90    4.00
   4  20  -8   32.80    3.90
  20   8  -4   32.60    3.90
 -20   8   4   31.60    4.00
  -4  20  -8   32.80    4.00
  20 -10   4  409.46   24.00
   4  20 -10  469.25   23.50
 -20  10   4  449.36   24.10
  20  10  -4  404.46   23.80
  -4  20 -10  419.16   23.80
  12  -4  20  297.07   20.40
 -20  12   4  366.26   20.70
   4  20 -12  411.36   19.80
  20  12  -4  369.56   20.40
  20 -12   4  374.46   20.70
 -20  12  -4  397.16   20.80
 -12  -4  20  360.66   19.20
  -4  20 -12  313.17   20.20
  14  -4  20   36.70    4.80
 -14   4  20   26.10    3.80
 -20  14   4   28.50    4.40
 -20  14  -4   29.80    4.40
 -20  16   4  624.04   34.20
 -16   4  20  584.64   34.00
  16  -4  20  639.84   34.40
 -20  16  -4  649.34   34.30
  18  -4  20   12.20    3.70
 -18   4  20    7.90    3.50
 -20  18   4   12.20    3.60
 -20  18  -4   17.90    4.00
  -6  20   0  127.09    8.50
  20   0  -6  126.89    8.50
  20   0   6  131.69    8.80
  20  -2   6   91.39    7.20
  20   2  -6   95.29    6.90
  20  -2  -6   96.09    7.00
  20   2   6   96.09    7.20
  -6  20  -2   94.19    6.90
  20  -4   6   38.40    4.30
 -20   4   6   38.90    4.50
  20   4  -6   35.80    4.50
  20   4   6   37.80    4.40
  -6  20  -4   36.30    4.50
 -20   6   6   61.69    5.90
   6  -6  20   70.49    5.80
  20  -6   6   64.99    5.80
  20   6  -6   67.19    5.60
  20   8  -6  201.78   12.90
   8  -6  20  241.78   13.40
  20  -8   6  241.18   13.60
 -20   8   6  218.48   13.30
  -6  20  -8  201.38   13.10
 -20  10   6  342.47   19.10
  10  -6  20  321.37   19.00
  20  10  -6  333.67   18.70
   6  20 -10  328.37   18.20
  20 -10   6  327.27   19.00
  -6  20 -10  334.77   19.00
  20  12  -6  439.96   24.40
  12  -6  20  438.56   24.80
   6  20 -12  442.96   23.70
 -20  12   6  416.86   24.70
  20 -12   6  421.76   24.70
  -6  20 -12  492.25   24.80
  14  -6  20   73.49    6.90
  20 -14   6   80.59    7.00
 -20  14   6   76.19    6.80
  20  14  -6   69.49    6.30
 -14   6  20   67.19    6.60
 -16   6  20  855.41   48.10
  20  16  -6  900.11   47.90
  16  -6  20  934.51   48.50
 -20  16   6  904.81   48.30
 -20  16  -6  886.21   48.30
 -20  18   6  108.09    8.20
 -18   6  20   76.69    8.00
  18  -6  20  109.29    8.50
 -20  18  -6  100.09    8.30
  20   0  -8  393.56   22.50
  20   0   8  393.76   22.80
   0  -8  20  445.76   22.10
  -8  20   0  391.96   22.60
   2  -8  20  192.68   10.60
 -20   2   8  156.28   10.80
  20  -2   8  184.28   11.20
  -8  20   2  181.48   11.00
  20   2  -8  168.08   10.80
  -2  -8  20  180.38   10.00
  20   2   8  179.88   11.20
  -8  20  -2  170.98   11.00
   4  -8  20   37.90    4.00
 -20   4   8   36.60    4.20
  20  -4   8   33.30    4.20
  20   4  -8   35.20    3.80
  -8  20  -4   27.40    4.00
 -20   6   8  210.38   12.80
  20   6  -8  214.48   12.40
   6  -8  20  209.48   12.60
  20  -6   8  201.28   12.80
  -8  20  -6  214.08   12.80
  20  -8   8    0.60    2.60
  20   8  -8    2.30    2.30
   8  -8  20    0.20    2.50
 -20   8   8    1.10    2.60
  -8  20  -8    0.60    2.50
 -20  10   8 1055.99   53.49
  20 -10   8 1027.40   53.39
  10  -8  20  914.41   53.19
  20  10  -8 1046.50   52.89
   8  20 -10 1012.70   52.49
  -8  20 -10  931.61   53.19
 -20  12   8 1147.09   62.79
   8  20 -12 1212.98   61.69
  12  -8  20 1339.27   63.09
  20  12  -8 1175.98   62.29
  20 -12   8 1183.48   62.79
  -8  20 -12 1026.90   62.59
 -14   8  20    1.10    2.90
  20 -14   8    0.00    3.00
  20  14  -8    2.20    2.40
  14  -8  20    2.60    3.20
 -20  14   8    2.30    3.20
 -16   8  20  296.47   17.30
 -20  16   8  273.67   17.20
  16  -8  20  300.27   17.60
  20  16  -8  291.37   16.60
  20 -16   8  289.37   17.40
  20  18  -8    2.90    2.90
  18  -8  20   -1.50    3.20
 -20  18   8    1.80    3.30
 -18   8  20    1.30    3.40
 -10  20   0 1195.58   60.99
   0 -10  20 1105.09   60.29
  20   0  10 1145.79   60.99
  20  -2  10 1011.20   54.89
 -10  20   2 1019.20   54.79
 -20   2  10  937.21   54.59
   2 -10  20 1074.89   54.39
  20   2  10  981.30   54.89
 -10  20  -2 1125.39   55.09
  -2 -10  20 1061.99   53.89
  20  -4  10  448.36   24.10
   4 -10  20  454.85   23.70
 -20   4  10  374.46   23.70
 -10  20   4  430.06   24.00
 -10  20  -4  440.46   24.00
   6 -10  20  327.07   18.20
  20  -6  10  321.57   18.50
 -20   6  10  305.27   18.30
 -10  20   6  318.87   18.30
  20   6 -10  319.37   17.90
 -10  20  -6  323.07   18.40
 -20   8  10  957.70   52.99
  20  -8  10 1015.70   53.19
   8 -10  20  976.10   52.99
  20   8 -10 1016.70   52.49
 -10  20  -8  998.20   53.09
  10 -10  20 2701.53  153.28
  10  20 -10 3081.49  152.48
  20  10 -10 3059.39  152.78
  20 -10  10 2866.01  153.38
 -20  10  10 2991.60  153.38
 -10  20 -10 2891.51  153.38
 -20  12  10 2336.57  122.19
  12 -10  20 2256.07  122.19
  20  12 -10 2358.96  121.39
  10  20 -12 2463.95  120.89
  20 -12  10 2210.98  122.09
 -10  20 -12 2335.87  122.19
 -14  10  20  262.27   16.10
 -20  14  10  265.67   16.20
  20  14 -10  280.87   15.20
  20 -14  10  261.37   16.10
  14 -10  20  262.87   16.30
 -16  10  20    5.00    3.20
  20  16 -10    9.10    2.60
 -20  16  10    6.80    3.40
  20 -16  10    7.90    3.70
  16 -10  20    8.90    4.00
 -20  18  10  165.58   11.90
  18 -10  20  168.78   12.20
 -18  10  20  181.78   12.20
  20  18 -10  177.68   10.60
  20   0  12 1370.26   74.69
   0 -12  20 1405.86   73.89
 -12  20   0 1461.75   74.79
   2 -12  20 1062.79   52.99
  20  -2  12  940.51   53.49
 -12  20   2 1068.09   53.59
 -20   2  12  924.01   53.19
 -12  20  -2 1016.40   53.59
   4 -12  20  366.86   19.00
 -12  20   4  367.36   19.50
  20  -4  12  279.77   19.10
 -20   4  12  328.07   19.30
 -12  20  -4  349.77   19.50
 -20   6  12  400.66   21.90
 -12  20   6  435.16   22.00
  20  -6  12  374.76   21.80
   6 -12  20  318.47   21.40
 -12  20  -6  401.96   21.90
  20  -8  12 1165.68   59.49
 -20   8  12 1129.59   59.39
 -12  20   8 1131.79   59.39
   8 -12  20 1075.09   59.29
 -12  20  -8 1068.39   59.39
 -20  10  12 2240.28  116.09
 -12  20  10 2285.27  116.09
  10 -12  20 2008.10  115.99
 -12  20 -10 2308.07  116.19
  12 -12  20 1600.04   93.49
  20 -12  12 1855.51   93.69
 -20  12  12 1835.42   93.69
 -12  20 -12 1806.62   93.69
 -20  14  12  399.46   22.70
  20 -14  12  406.56   22.70
  14 -12  20  371.66   22.70
 -16  12  20    1.10    3.60
 -20  16  12   -1.60    3.50
  16 -12  20    2.10    3.80
  20 -16  12    4.80    3.60
  18 -12  20  169.08   12.30
 -18  12  20  168.88   12.00
 -20   0  14  329.57   19.90
  20   0  14  355.46   20.50
 -14  20   0  387.16   20.50
 -20   2  14  117.49    9.00
 -14  20   2  145.09    9.60
  20  -2  14  150.18    9.70
 -14  20  -2  133.59    9.40
 -14  20   4   32.30    4.40
 -20   4  14   22.60    4.10
   4 -14  20   34.80    3.80
  20  -4  14   25.60    4.10
 -14  20  -4   22.60    4.00
 -20   6  14   65.09    6.70
  20  -6  14   68.59    6.70
   6 -14  20   68.69    6.10
 -14  20   6   78.49    6.80
 -14  20  -6   80.99    6.80
 -14  20   8    1.90    3.10
  20  -8  14    1.10    3.10
   8 -14  20    1.30    2.80
 -20   8  14    0.10    3.00
 -14  20  -8    2.90    3.30
  10 -14  20  255.87   15.90
 -20  10  14  271.77   16.20
  20 -10  14  275.07   16.20
 -14  20  10  257.07   15.90
 -14  20 -10  262.97   16.20
 -20  12  14  410.76   22.40
  12 -14  20  323.07   22.00
  20 -12  14  409.96   22.40
 -14  20  12  393.96   22.10
  20 -14  14   -0.50    3.60
  14 -14  20   -1.80    3.50
 -20  14  14   -3.10    3.40
 -14  20  14   -0.10    3.30
 -20  16  14  177.88   12.80
 -16  14  20  175.78   12.60
 -14  20  16  176.78   12.40
  16 -14  20  192.28   12.90
  20 -16  14  204.28   12.80
  20 -18  14   26.00    5.00
 -20  18  14   27.70    5.20
 -18  14  20   22.00    4.70
 -14  20  18   26.90    4.90
  18 -14  20   29.60    5.60
 -16  20   0   -0.60    2.80
 -20   0  16   -1.40    2.40
  20   0  16    1.70    3.00
 -16  20   2   28.10    4.20
 -20   2  16   23.30    3.90
  20  -2  16   30.80    4.40
 -16  20  -2   20.60    3.90
  20  -4  16  623.34   33.70
 -20   4  16  560.24   33.30
 -16  20  -4  651.63   33.70
 -16  20   6  915.61   47.30
  20  -6  16  872.91   47.30
   6 -16  20  912.61   47.00
 -20   6  16  775.82   47.10
 -16  20  -6  907.51   47.40
 -20   8  16  302.67   17.20
   8 -16  20  285.77   16.80
  20  -8  16  294.37   17.20
 -16  20   8  274.87   16.80
 -16  20  -8  263.67   17.00
 -16  20  10    7.30    3.40
  16  20 -10    9.50    2.40
  20 -10  16    7.00    3.70
  10 -16  20   11.40    3.80
 -20  10  16    9.10    3.80
 -16  20 -10    7.70    3.60
  20 -12  16    2.80    3.70
  12 -16  20    1.10    3.40
 -20  12  16    1.20    3.40
 -16  20  12    2.30    3.40
  14 -16  20  200.88   13.20
 -16  20  14  184.38   12.70
  20 -14  16  185.28   13.00
 -20  14  16  196.48   13.20
  16 -16  20  571.24   31.60
 -20  16  16  560.54   31.50
 -16  16  20  553.74   31.40
  20 -16  16  555.14   31.40
 -16  20  16  549.54   31.30
  20 -18  16  198.68   13.40
 -16  20  18  186.58   13.10
 -18  16  20  179.78   13.10
  18 -16  20  200.68   13.60
 -20  18  16  176.28   13.00
 -18  20   0  345.77   20.00
  20   0  18  326.57   20.00
 -20   0  18  357.46   19.60
  20  -2  18  123.69    9.80
 -20   2  18  121.49    9.20
 -18  20   2  140.39    9.80
 -18  20  -2  152.68    9.90
 -18  20   4   10.30    3.40
 -20   4  18   12.30    3.60
  20  -4  18   12.00    3.70
 -18  20  -4    5.40    3.40
 -18  20   6  125.29    9.50
  20  -6  18  129.09    9.70
 -20   6  18  118.59    9.30
 -18  20  -6  123.89    9.40
  20  -8  18   -1.50    3.30
 -18  20   8   -0.20    3.30
 -20   8  18    6.10    3.70
 -18  20  -8    0.10    3.40
 -18  20  10  172.28   11.70
  18  20 -10  163.68   10.30
 -20  10  18  181.98   12.30
  20 -10  18  170.78   11.80
  20 -12  18  144.99   11.70
 -18  20  12  174.78   11.50
  12 -18  20  180.78   11.90
 -20  12  18  162.08   11.90
 -20  14  18   33.80    5.40
  20 -14  18   22.10    5.00
  14 -18  20   25.50    5.00
 -18  20  14   34.00    5.20
  20 -16  18  184.98   13.40
 -16  18  20  197.38   13.30
  16 -18  20  193.38   13.50
 -20  16  18  189.28   13.40
 -18  20  16  176.28   12.90
 -20  18  18   -1.90    4.10
 -18  18  20    4.70    4.40
 -18  20  18    1.40    4.30
  18 -18  20    1.30    4.50
  20 -18  18   -0.10    4.40
 -20   0  20 1188.48   63.19
 -20  20   0 1143.89   63.49
  20   0  20 1242.88   63.79
 -20   2  20 1064.09   55.29
  20  -2  20 1033.40   55.59
 -20  20   2 1097.29   55.59
 -20  20  -2  945.11   55.39
 -20   4  20  491.15   28.10
  20  -4  20  506.25   28.30
 -20  20   4  494.95   28.10
 -20  20  -4  516.15   28.20
 -20   6  20  160.68   11.20
  20  -6  20  145.69   11.20
 -20  20   6  159.08   10.80
 -20  20  -6  152.88   11.00
 -20   8  20  285.97   17.10
  20  20  -8  273.57   16.20
 -20  20   8  269.37   16.60
  20  -8  20  244.28   16.70
 -20  20  -8  290.47   17.00
 -20  20  10 1119.29   59.69
  20 -10  20 1120.09   59.69
  20  20 -10 1089.39   58.49
 -20  20  12  925.91   49.20
  20 -12  20  879.51   49.30
 -20  14  20  163.18   12.40
 -20  20  14  160.78   12.20
  20 -14  20  170.68   12.70
 -20  16  20    1.60    4.50
 -20  20  16    8.70    4.60
 -16  20  20    5.30    4.80
  20 -16  20    3.80    5.00
 -20  18  20  241.58   16.40
 -20  20  18  243.78   16.50
 -18  20  20  230.98   16.10
  20 -18  20  258.17   16.80
 -20  20  20  977.10   53.49
  21   1  -1 4555.74  239.38
  21  -1   1 4708.63  239.48
  21  -1  -1 4371.16  239.38
  21   1   1 4766.82  239.48
  21  -3   1 1157.18   69.79
  21   3  -1 1439.56   69.99
  21  -3  -1 1433.96   69.99
  21   3   1 1254.97   69.79
  21  -5   1  557.34   30.40
  21   5  -1  541.65   30.30
  21   5   1  579.64   30.50
  -1  21  -5  553.74   30.20
  21  -5  -1  544.55   30.30
  21   7  -1  171.48   10.70
  21  -7   1  174.98   10.80
   1  21  -7  159.88   10.30
  -1  21  -7  154.68   10.30
  21   7   1  161.18   10.70
  21  -7  -1  180.38   10.80
   1  21  -9 1327.87   65.39
  21   9  -1 1168.08   65.49
 -21   9   1 1291.57   65.69
  21  -9   1 1239.88   65.59
 -21   9  -1 1301.17   65.69
  -1  21  -9 1057.09   65.19
  21  -9  -1 1273.17   65.59
 -21  11   1 2133.09  114.19
  21 -11   1 2231.18  114.19
   1  21 -11 2175.28  113.79
  -1  21 -11 1895.11  113.69
 -11  -1  21 2350.06  113.59
 -21  11  -1 2270.87  114.29
   1  21 -13 1412.46   77.29
 -21  13   1 1458.85   77.89
 -13   1  21 1464.65   77.49
 -13  -1  21 1527.65   77.39
 -21  13  -1 1473.55   77.99
  -1  21 -13 1501.95   77.59
 -21  15   1  204.68   13.00
 -15   1  21  179.48   12.40
 -15  -1  21  221.38   12.20
 -21  15  -1  216.08   13.10
 -21  17   1  260.87   16.00
 -17   1  21  269.57   15.60
 -21  17  -1  255.27   16.00
 -17  -1  21  270.17   15.20
  19  -1  21  805.42   42.30
 -21  19   1  716.33   42.00
 -19   1  21  799.42   41.80
 -19  -1  21  777.42   41.50
 -21  19  -1  776.02   42.10
  21  -1   3 1358.56   71.89
  21   1   3 1326.17   71.89
  21  -1  -3 1396.86   71.89
  21  -3   3  481.15   26.90
  21   3  -3  506.95   26.90
  21  -3  -3  478.45   26.80
  21   3   3  496.65   27.00
  -3  21  -3  473.45   26.70
  21   5  -3  233.88   13.90
  -3  21  -5  227.18   13.80
  21   5   3  243.48   14.10
  21  -5  -3  230.18   13.90
 -21   7   3    3.10    2.50
  21   7  -3    1.20    2.50
  21  -7   3    0.60    2.60
   3  21  -7    0.50    2.00
  -3  21  -7    2.00    2.40
  21   7   3   -1.10    2.60
  21  -7  -3   -0.80    2.60
   3  21  -9  732.13   39.40
  21  -9   3  790.22   40.00
  21   9  -3  689.53   39.70
 -21   9   3  788.52   40.00
  -3  21  -9  692.33   39.60
   3  21 -11 1743.73   83.69
 -21  11   3 1380.76   83.99
  21  11  -3 1458.75   83.89
  21 -11   3 1702.13   84.29
 -11  -3  21 1755.12   83.29
  -3  21 -11 1522.95   83.89
 -21  13   3  686.93   39.70
  21 -13   3  743.03   39.80
   3  21 -13  813.22   39.20
 -13   3  21  712.83   39.50
  21  13  -3  716.63   39.70
  -3  21 -13  663.63   39.40
 -13  -3  21  804.42   38.80
 -21  13  -3  724.03   39.80
 -15   3  21    0.80    2.70
  15  -3  21   -2.50    3.10
 -21  15   3   -1.70    2.90
 -21  15  -3   -0.10    2.90
 -15  -3  21    0.60    1.80
 -21  17   3    7.00    3.50
 -17   3  21    6.90    3.20
  17  -3  21    5.20    3.40
 -21  17  -3    5.60    3.60
 -21  19   3  420.26   24.40
  19  -3  21  437.96   24.60
 -19   3  21  418.86   24.20
 -21  19  -3  433.56   24.40
  21   1  -5  572.04   31.90
  21  -1   5  630.94   32.20
  -5  21  -1  591.64   32.00
  21   1   5  576.84   32.10
  21  -1  -5  572.24   32.00
  21  -3   5  252.97   14.70
  21   3  -5  256.27   14.70
  -5  21  -3  243.48   14.60
  21  -3  -5  232.78   14.50
  21   3   5  255.57   14.80
  21  -5   5   19.00    3.50
  21   5  -5   14.10    2.90
 -21   5   5   14.10    3.20
  21   5   5   17.10    3.70
  21  -5  -5   13.00    3.30
  -5  21  -5   14.70    3.10
  21  -7   5  282.07   16.90
  21   7  -5  271.07   16.50
 -21   7   5  296.77   16.90
  -5  21  -7  305.07   16.90
 -21   9   5  127.59    8.30
  21  -9   5  120.39    8.30
   5  21  -9  125.59    7.50
  21   9  -5  111.89    8.00
  -9  -5  21   94.79    6.30
  -5  21  -9  107.09    8.00
 -21  11   5  927.71   45.80
  21 -11   5  875.21   45.70
   5  21 -11  939.41   45.00
  21  11  -5  841.72   45.40
  11  -5  21  706.33   45.40
  -5  21 -11  798.12   45.40
  21 -13   5  259.37   15.20
 -21  13   5  257.17   15.30
  21  13  -5  252.37   15.00
 -13   5  21  230.38   14.90
  13  -5  21  247.68   15.30
   5  21 -13  263.67   14.10
  -5  21 -13  247.88   15.00
 -21  15   5  252.87   15.90
 -15   5  21  242.58   15.70
  15  -5  21  263.27   16.20
  21  15  -5  299.67   16.00
 -21  15  -5  271.97   16.20
 -17   5  21  204.98   12.40
  17  -5  21  168.58   12.30
 -21  17   5  193.48   12.30
 -21  17  -5  177.08   12.10
 -21  19   5   62.29    7.10
  19  -5  21   64.89    7.10
 -19   5  21   57.69    7.20
 -21  19  -5   68.09    7.10
  21  -1   7  152.58   11.00
   1  -7  21  176.78   10.50
  -7  21   1  172.48   10.90
  21   1  -7  163.88   10.80
  -1  -7  21  200.18   10.30
  -7  21  -1  184.38   11.00
  21   1   7  172.58   11.10
  21  -1  -7  168.38   10.90
  21   3  -7   -0.20    2.20
  21  -3   7    0.90    2.60
   3  -7  21    1.90    2.20
  21   3   7   -0.60    2.60
  -3  -7  21    0.10    1.50
  -7  21  -3   -0.20    2.30
 -21   5   7  275.87   15.90
  21  -5   7  265.47   16.00
  21   5  -7  271.37   15.70
   5  -7  21  270.77   15.70
  -7  21  -5  272.07   16.00
  21  -7   7  543.75   27.40
 -21   7   7  508.85   27.20
   7  -7  21  425.36   26.90
  -7  21  -7  484.25   27.10
  21  -9   7  103.49    7.80
   9  -7  21   99.99    7.90
 -21   9   7  110.59    7.90
  21   9  -7  100.09    7.40
   7  21  -9  112.59    7.10
  -7  21  -9   94.09    7.80
 -21  11   7 1177.38   59.59
  21 -11   7 1147.19   59.59
  21  11  -7 1179.48   59.19
  11  -7  21 1080.49   59.49
  -7  21 -11  998.60   59.29
  13  -7  21  272.47   16.70
  21  13  -7  278.57   16.10
  21 -13   7  278.37   16.50
   7  21 -13  287.57   15.10
 -21  13   7  296.17   16.70
  -7  21 -13  246.78   16.30
  15  -7  21  223.08   14.70
  21  15  -7  255.57   14.20
 -15   7  21  226.78   14.50
 -21  15   7  240.38   14.60
  21 -15   7  224.68   14.60
 -21  17   7  159.88   11.20
  17  -7  21  169.38   11.70
 -17   7  21  171.68   11.50
  21  17  -7  168.68   11.00
  21  19  -7   30.10    4.60
 -19   7  21   33.50    5.20
 -21  19   7   38.90    5.20
  19  -7  21   32.30    5.30
 -21  19  -7   27.70    4.90
   1  -9  21 1184.88   64.69
  -9  21   1 1244.88   65.29
  21  -1   9 1212.58   65.29
  21   1   9 1183.48   65.29
  -9  21  -1 1237.18   65.19
  -1  -9  21 1319.77   64.49
   3  -9  21  763.22   39.80
 -21   3   9  680.23   40.00
  21   3  -9  719.43   39.90
  -9  21   3  768.32   40.20
  21  -3   9  721.43   40.20
  21   3   9  724.53   40.20
  -9  21  -3  836.22   40.40
  -9  21   5  128.29    8.60
  21  -5   9  122.99    8.70
  21   5  -9  119.19    8.20
 -21   5   9  115.99    8.50
   5  -9  21  112.49    8.30
  -9  21  -5  128.69    8.70
  21  -7   9  112.29    8.30
  21   7  -9  110.09    7.50
 -21   7   9  113.89    8.20
   7  -9  21   94.29    7.90
  -9  21  -7  116.39    8.30
  21  -9   9 1443.76   72.19
 -21   9   9 1450.05   72.09
   9  -9  21 1217.78   71.69
  21   9  -9 1454.05   71.49
  -9  21  -9 1218.28   71.79
  11  -9  21 2424.36  146.49
  21 -11   9 2899.61  146.69
  21  11  -9 2919.41  146.19
   9  21 -11 2949.90  145.69
 -21  11   9 2976.80  146.79
  -9  21 -11 2636.14  146.59
  21  13  -9 1138.49   56.29
  21 -13   9 1088.09   56.89
  13  -9  21  950.60   56.79
 -21  13   9 1124.29   56.99
  -9  21 -13 1006.90   56.69
 -21  15   9   32.50    4.70
  21  15  -9   39.90    4.20
 -15   9  21   25.40    4.30
  15  -9  21   31.40    4.80
  21 -15   9   33.00    5.00
  21  17  -9   33.80    4.10
 -21  17   9   30.20    4.60
  17  -9  21   28.60    4.80
 -17   9  21   29.00    4.80
  21  19  -9  370.66   20.90
 -21  19   9  361.76   21.70
  19  -9  21  372.76   22.00
 -19   9  21  378.26   22.00
 -11  21   1 2341.37  121.49
  21  -1  11 2346.07  121.59
   1 -11  21 2329.77  120.89
 -11  21  -1 2356.26  121.59
  -1 -11  21 2275.47  120.59
  21   1  11 2260.07  121.49
  21  -3  11 1874.51   93.09
   3 -11  21 1725.73   92.59
 -11  21   3 1723.43   92.89
 -11  21  -3 1742.83   92.99
 -11  21   5  897.01   47.00
   5 -11  21  907.31   46.70
 -21   5  11  838.42   46.90
  21  -5  11  810.32   46.90
 -11  21  -5  917.01   47.00
 -11  21   7 1162.78   62.49
  21  -7  11 1146.29   62.49
 -21   7  11 1172.48   62.49
   7 -11  21 1134.79   62.29
 -11  21  -7 1260.47   62.69
   9 -11  21 2613.84  143.89
 -11  21   9 2711.53  143.99
  21   9 -11 2821.32  143.39
  21  -9  11 2821.22  144.19
 -21   9  11 2713.93  144.09
 -11  21  -9 2827.02  144.19
  11  21 -11 3892.91  196.68
 -21  11  11 3875.51  197.78
  11 -11  21 3323.37  197.58
  21  11 -11 3920.51  196.98
  21 -11  11 3883.21  197.78
 -11  21 -11 3832.22  197.78
  21  13 -11 1965.00  105.09
  21 -13  11 2050.19  106.09
  13 -11  21 1973.10  106.09
 -21  13  11 2070.19  106.19
 -15  11  21  423.06   24.30
  21  15 -11  408.26   23.00
 -21  15  11  421.16   24.30
  21 -15  11  433.96   24.40
  15 -11  21  439.66   24.50
  17 -11  21  257.07   16.30
  21 -17  11  258.07   16.10
  21  17 -11  253.67   14.60
 -21  17  11  259.97   16.20
 -17  11  21  271.77   16.30
  19 -11  21 1014.40   53.89
  21  19 -11  970.40   52.19
 -19  11  21 1023.80   53.89
 -21  19  11  968.50   53.59
 -13  21   1 1559.74   75.99
 -21   1  13 1284.57   75.49
   1 -13  21 1466.15   75.09
  21  -1  13 1399.66   75.79
 -13  21  -1 1542.05   75.99
  21   1  13 1347.07   75.79
 -21   3  13  632.84   39.60
  21  -3  13  739.43   40.00
   3 -13  21  772.82   39.40
 -13  21   3  786.52   40.00
 -13  21  -3  757.22   40.00
 -21   5  13  221.68   14.50
  21  -5  13  251.97   14.70
 -13  21   5  252.37   14.60
   5 -13  21  240.08   14.10
 -13  21  -5  229.78   14.50
  21  -7  13  274.07   16.70
 -21   7  13  267.87   16.50
   7 -13  21  284.17   16.30
 -13  21   7  276.27   16.50
 -13  21  -7  281.77   16.70
 -21   9  13 1108.29   57.69
  21  -9  13 1091.29   57.69
   9 -13  21 1004.20   57.49
 -13  21   9 1091.79   57.59
 -13  21  -9 1090.29   57.69
  21 -11  13 2037.50  102.59
 -13  21  11 1982.30  102.39
 -21  11  13 1992.90  102.59
  13  21 -11 2045.60  101.19
  11 -13  21 1821.62  102.49
 -13  21 -11 1779.82  102.39
 -21  13  13 1445.16   72.89
  21 -13  13 1435.06   72.79
 -13  21  13 1433.26   72.79
  13 -13  21 1157.18   72.59
 -13  21  15  114.69    9.00
  15 -13  21  101.19    9.50
  21 -15  13  114.29    9.30
 -15  13  21  105.49    9.10
 -21  15  13  116.79    9.40
 -21  17  13   53.49    6.70
 -17  13  21   51.79    6.40
  21 -17  13   36.40    5.50
  17 -13  21   46.70    6.40
  19 -13  21  422.86   25.80
 -21  19  13  456.85   25.60
 -19  13  21  438.56   25.70
  21  -1  15  195.18   12.90
 -21   1  15  187.28   12.60
 -15  21   1  221.48   13.10
 -15  21  -1  221.48   13.10
  21   1  15  206.58   13.10
  21  -3  15   -2.40    2.90
 -21   3  15   -1.20    2.70
 -15  21   3   -1.20    2.90
 -15  21  -3   -0.90    3.10
   5 -15  21  282.07   15.60
  21  -5  15  258.57   16.10
 -21   5  15  244.68   15.90
 -15  21   5  277.07   15.90
 -15  21  -5  262.17   16.00
 -21   7  15  190.68   13.50
   7 -15  21  213.18   13.20
  21  -7  15  206.98   13.50
 -15  21   7  221.28   13.40
 -15  21  -7  242.28   13.80
 -15  21   9   33.10    4.60
 -21   9  15   36.70    5.10
  21  -9  15   36.10    5.20
   9 -15  21   28.10    4.50
 -15  21  -9   43.00    5.30
 -15  21  11  423.46   23.50
 -21  11  15  415.46   23.70
  11 -15  21  383.86   23.50
 -15  21 -11  417.76   23.70
 -21  13  15  112.69    9.50
 -15  21  13  114.29    9.10
  21 -13  15  115.89    9.30
  13 -15  21  108.99    9.50
 -15  15  21   35.60    5.40
 -21  15  15   29.40    5.20
  15 -15  21   28.10    5.20
 -15  21  15   31.30    5.20
  21 -15  15   32.10    5.20
 -21  17  15   88.89    9.10
  17 -15  21  109.29    9.90
 -17  15  21  100.89    9.30
  21 -17  15  108.19    9.70
 -15  21  17  119.99    9.50
 -15  21  19    2.90    4.30
 -19  15  21    2.10    4.50
  19 -15  21   -0.60    4.70
 -21  19  15    8.70    4.20
 -21   1  17  235.28   15.00
  21  -1  17  265.47   15.60
 -17  21   1  257.07   15.50
 -17  21  -1  252.97   15.50
  21   1  17  258.77   15.50
 -21   3  17    5.40    3.10
  21  -3  17    3.60    3.60
 -17  21   3    5.30    3.40
 -17  21  -3    5.40    3.30
 -21   5  17  176.38   11.90
  21  -5  17  176.78   12.00
 -17  21  -5  177.28   11.80
 -17  21   7  162.28   11.10
  21  -7  17  149.59   11.30
 -21   7  17  171.08   11.50
 -17  21  -7  175.18   11.50
 -21   9  17   24.10    4.60
 -17  21   9   26.50    4.50
  21  -9  17   38.20    5.30
   9 -17  21   30.60    4.60
 -17  21  -9   25.70    4.60
 -21  11  17  281.27   16.40
  11 -17  21  259.17   15.90
  21 -11  17  218.98   16.00
 -17  21  11  264.67   15.90
 -21  13  17   32.10    5.40
  21 -13  17   38.10    5.60
 -17  21  13   52.09    6.10
  13 -17  21   32.50    5.10
 -17  21  15  107.89    9.10
 -15  17  21  104.19    9.20
  21 -15  17  102.29    9.60
  15 -17  21  119.39    9.70
 -21  15  17   83.99    9.20
 -17  17  21  121.99   10.20
  21 -17  17  115.79   10.40
  17 -17  21  124.39   10.70
 -17  21  17  108.99    9.70
 -21  17  17  104.09    9.90
  19 -17  21   20.70    5.90
 -17  21  19   20.90    5.60
 -21  19  17   10.00    4.80
  21 -19  17    7.90    5.10
 -19  17  21   20.20    5.60
 -19  21   1  801.82   42.30
 -21   1  19  784.62   42.00
  21  -1  19  797.32   42.30
  21   1  19  760.62   42.30
 -19  21  -1  737.93   42.10
  21  -3  19  424.26   25.10
 -21   3  19  440.26   24.90
 -19  21   3  432.96   24.90
 -19  21  -3  458.05   25.00
 -21   5  19   58.89    7.20
 -19  21   5   63.49    6.80
  21  -5  19   65.69    7.40
 -19  21  -5   61.39    7.10
  21  -7  19   30.20    5.20
 -21   7  19   34.80    5.30
 -19  21   7   36.50    5.20
 -19  21  -7   41.80    5.60
  21  -9  19  354.46   21.60
  19  21  -9  358.46   20.60
 -21   9  19  376.76   21.80
 -19  21  -9  379.66   21.70
 -21  11  19 1064.79   54.49
  19  21 -11  945.11   52.49
  21 -11  19  980.10   54.29
 -19  21  11 1026.90   54.19
 -19  21  13  421.16   23.90
  21 -13  19  443.86   24.40
 -21  13  19  364.06   24.10
  21 -15  19    1.00    4.60
 -19  21  15   -0.50    4.10
 -21  15  19    6.80    4.30
 -15  19  21    1.50    4.50
  15 -19  21    0.30    4.30
  21 -17  19   13.40    5.20
  17 -19  21   24.30    6.00
 -21  17  19   15.90    5.60
 -19  21  17   12.80    4.80
 -17  19  21   13.90    4.90
 -21  19  19  412.36   24.90
 -19  19  21  399.26   24.80
 -19  21  19  407.86   24.80
  19 -19  21  425.96   25.20
  21 -19  19  427.36   25.10
 -21   1  21 1492.05   84.59
  21  -1  21 1682.43   85.09
 -21  21   1 1641.24   84.99
 -21  21  -1 1568.54   84.89
  21   1  21 1633.84   85.09
 -21   3  21 1308.37   64.59
  21  -3  21 1132.79   64.49
 -21  21   3 1130.79   64.39
 -21  21  -3 1256.17   64.59
 -21   5  21  428.56   24.40
  21  -5  21  369.16   24.20
 -21  21   5  432.16   24.20
 -21  21  -5  454.85   24.40
 -21   7  21  248.88   15.00
  21  21  -7  227.28   14.40
 -21  21   7  222.08   14.40
  21  -7  21  229.58   14.80
 -21  21  -7  199.88   14.60
 -21   9  21  892.01   46.20
 -21  21   9  844.62   45.80
  21  -9  21  866.41   46.00
  21  21  -9  763.22   44.90
 -21  11  21 1857.71   90.79
 -21  21  11 1665.53   90.19
  21 -11  21 1628.64   90.39
  21  21 -11 1659.63   88.69
 -21  13  21  782.92   44.80
 -21  21  13  839.42   44.70
 -21  15  21  158.28   12.70
 -21  21  15  135.59   11.90
 -15  21  21  166.28   12.30
  21 -15  21  161.78   12.70
 -21  17  21  186.68   14.10
 -21  21  17  166.98   13.60
 -17  21  21  177.78   13.60
  21 -17  21  180.38   14.00
 -21  19  21  779.82   43.40
 -19  21  21  733.13   43.10
  21 -19  21  813.32   43.60
 -21  21  21   -2.70    5.30
  22   0   0 5496.45  285.77
  22   2   0 3304.67  151.48
  22  -2   0 2489.85  151.18
  22  -4   0 1484.65   74.29
  22   4   0 1323.17   74.09
  22   6   0   57.59    5.80
  22  -6   0   59.19    5.60
   0  22  -6   51.19    5.30
   0  22  -8  747.03   42.70
  22  -8   0  861.51   43.10
  22   8   0  789.22   43.00
   0  22 -10 2413.56  124.29
  22  10   0 2080.29  124.39
  22 -10   0 2488.55  124.59
 -22  10   0 2521.65  124.69
   0  22 -12 2669.13  140.89
 -22  12   0 2635.24  141.19
 -12   0  22 2786.32  140.69
   0  22 -14 1088.29   57.59
 -22  14   0 1054.89   57.99
 -14   0  22 1114.59   57.59
 -16   0  22  396.96   21.90
 -22  16   0  386.56   22.40
 -18   0  22  484.85   27.10
 -22  18   0  499.05   27.70
 -22  20   0 1273.57   64.49
  20   0  22 1159.98   64.39
 -20   0  22 1182.08   63.89
  22   2  -2 2093.99  108.79
  22  -2   2 2182.08  108.89
  22   2   2 2043.50  108.79
  22  -2  -2 1971.00  108.69
  22   4  -2  948.61   48.90
  -2  22  -4  884.81   48.60
  22   4   2  922.61   48.90
  22  -4  -2  892.71   48.80
   2  22  -6   11.70    2.80
  22   6  -2   13.60    3.20
  22  -6   2   18.10    3.50
  22   6   2   13.40    3.20
  22  -6  -2   12.00    3.20
  -2  22  -6   13.00    3.10
  22   8  -2  482.85   27.70
   2  22  -8  505.05   27.40
  22  -8   2  532.55   27.80
 -22   8   2  544.05   27.90
  22  -8  -2  525.95   27.80
  -2  22  -8  419.26   27.40
  22   8   2  503.05   27.80
   2  22 -10 1967.80  102.49
 -22  10   2 2073.89  102.89
  22  10  -2 1800.92  102.69
  22 -10   2 2006.30  102.79
 -10  -2  22 2146.19  102.19
  -2  22 -10 1734.73  102.39
 -12   2  22 2027.90  104.19
  22  12  -2 1820.92  104.39
 -22  12   2 2008.50  104.59
  22 -12   2 2018.20  104.49
   2  22 -12 1846.72  103.89
 -22  12  -2 2031.00  104.59
 -12  -2  22 2156.08  103.79
 -14   2  22  493.55   27.10
 -22  14   2  452.15   27.30
   2  22 -14  501.35   26.80
 -14  -2  22  494.95   26.50
 -22  14  -2  490.15   27.50
  -2  22 -14  517.55   27.20
 -22  16   2  111.99    8.90
 -16   2  22  130.09    8.80
 -22  16  -2  111.39    8.80
 -22  18   2  309.37   17.50
  18  -2  22  273.67   17.60
 -18   2  22  280.97   17.20
 -22  18  -2  297.17   17.50
 -20   2  22  886.21   48.40
 -22  20   2  880.71   48.60
  20  -2  22  948.31   48.80
 -22  20  -2  881.31   48.60
  22   0  -4 1255.87   70.79
  22   0   4 1424.36   70.99
  22   2  -4  931.91   51.29
  22  -2   4  991.80   51.49
  22   2   4  986.70   51.49
  -4  22  -2  968.60   51.29
  22  -2  -4  929.01   51.29
  22  -4   4  563.84   28.80
  22   4  -4  512.15   28.50
  -4  22  -4  489.05   28.40
  22  -4  -4  488.95   28.50
  22   4   4  543.95   28.70
 -22   6   4   81.09    6.90
  22  -6   4   90.79    7.20
  22   6  -4   79.89    6.80
  22   6   4   91.09    7.10
  22  -6  -4   79.09    7.00
  -4  22  -6   78.89    6.70
  22   8  -4   51.29    5.60
   4  22  -8   58.09    5.20
 -22   8   4   60.99    5.90
  22  -8   4   49.60    5.80
  -4  22  -8   45.90    5.60
  22 -10   4 1059.09   56.79
 -22  10   4 1059.49   56.89
   4  22 -10 1103.59   56.39
  22  10  -4 1035.70   56.69
 -10  -4  22 1156.68   55.79
  -4  22 -10  971.40   56.59
   4  22 -12  960.50   54.79
 -22  12   4 1057.09   55.59
  12  -4  22 1029.40   55.59
  22 -12   4 1015.80   55.49
  22  12  -4 1016.10   55.39
 -12  -4  22 1143.89   54.39
  -4  22 -12 1044.50   55.39
  14  -4  22   24.20    4.60
   4  22 -14   25.00    3.10
 -22  14   4   22.00    4.00
 -14   4  22   26.00    4.10
  22  14  -4   22.60    4.00
  -4  22 -14   17.40    3.60
 -22  14  -4   26.10    4.30
 -22  16   4  101.69    7.90
 -16   4  22   89.29    7.70
  16  -4  22   87.49    8.10
  22  16  -4   84.89    7.90
 -22  16  -4   86.99    7.80
 -22  18   4    4.40    3.60
  18  -4  22    3.10    3.70
 -18   4  22    5.30    3.60
 -22  18  -4    4.70    3.60
 -20   4  22  383.06   23.50
  20  -4  22  387.66   23.70
 -22  20   4  421.26   23.60
 -22  20  -4  437.96   23.70
  22   0  -6   51.29    5.40
  22   0   6   56.19    5.80
  -6  22   0   59.79    5.60
  22  -2   6   12.30    3.10
  22   2  -6   12.50    3.00
  22  -2  -6   10.30    3.00
  22   2   6   13.20    3.20
  -6  22  -2   17.20    3.40
  22   4  -6   79.49    6.70
  22  -4   6   93.39    7.10
  -6  22  -4   82.39    6.80
  22   4   6   83.99    7.10
  22  -6   6  930.31   45.50
   6  -6  22  862.51   45.20
  22   6  -6  689.13   44.90
 -22   6   6  891.81   45.40
  22   8  -6  155.48   10.30
  22  -8   6  172.48   10.80
   6  22  -8  162.38   10.00
 -22   8   6  162.78   10.70
   8  -6  22  161.28   10.60
  -6  22  -8  147.49   10.50
  22 -10   6  370.46   20.80
  10  -6  22  325.97   20.70
  22  10  -6  370.56   20.50
   6  22 -10  375.36   20.10
 -22  10   6  380.26   20.90
  -6  22 -10  347.57   20.60
   6  22 -12  505.25   26.00
  22 -12   6  503.35   27.00
  22  12  -6  509.25   26.70
  12  -6  22  463.85   27.00
 -22  12   6  488.85   26.90
  -6  22 -12  415.86   26.60
 -22  14   6   34.00    4.70
  14  -6  22   40.50    5.30
  22 -14   6   36.40    4.90
  22  14  -6   34.30    4.40
 -14   6  22   30.30    4.50
  -6  22 -14   26.40    4.30
 -22  16   6  347.97   20.20
  22  16  -6  365.06   20.00
  16  -6  22  338.57   20.40
 -16   6  22  330.27   20.10
 -22  18   6   50.99    6.50
  22  18  -6   54.09    6.80
  18  -6  22   62.89    6.70
 -18   6  22   48.50    6.00
 -22  18  -6   71.69    7.00
  22  20  -6   80.79    8.30
  20  -6  22   86.69    8.30
 -22  20   6   73.59    8.00
 -20   6  22   72.99    8.50
 -22  20  -6   85.99    8.00
  22   0  -8  735.03   43.70
  -8  22   0  828.52   44.00
  22   0   8  835.42   44.10
   0  -8  22  872.01   43.40
  22  -2   8  510.05   28.60
  22   2  -8  488.75   28.30
   2  -8  22  519.25   28.10
  -8  22   2  522.45   28.60
  -8  22  -2  529.95   28.60
  -2  -8  22  518.25   27.70
  22   2   8  538.15   28.70
   4  -8  22   50.99    5.30
  22   4  -8   46.00    5.30
 -22   4   8   57.79    5.70
  22  -4   8   56.49    6.00
  -8  22   4   57.29    5.70
  22   4   8   55.49    5.90
  -4  -8  22   54.99    3.80
  -8  22  -4   58.39    5.90
  22   6  -8  159.28   10.40
   6  -8  22  179.88   10.70
  22  -6   8  155.88   10.70
 -22   6   8  161.98   10.80
  -8  22  -6  164.88   10.80
 -22   8   8   29.70    4.30
   8  -8  22   25.70    4.10
  22  -8   8   19.90    4.10
  22   8  -8   24.30    3.60
  -8  22  -8   24.60    4.20
  22 -10   8 1206.38   58.19
  22  10  -8  960.20   57.59
 -22  10   8 1065.09   57.99
   8  22 -10 1205.28   57.39
  10  -8  22  995.90   57.89
  22 -12   8 1276.17   66.19
  12  -8  22 1063.99   65.99
  22  12  -8 1308.77   65.79
   8  22 -12 1327.07   65.19
 -22  12   8 1279.67   66.29
  -8  22 -12 1200.88   66.09
 -14   8  22   77.69    7.20
 -22  14   8   76.59    7.20
  14  -8  22   81.39    7.70
  22 -14   8   71.39    7.40
  22  14  -8   74.79    6.60
 -16   8  22   23.90    4.40
  22  16  -8   19.40    3.80
  22 -16   8   28.80    5.00
 -22  16   8   18.00    4.10
  16  -8  22   19.40    4.60
 -22  18   8    9.80    3.80
  18  -8  22   14.70    4.70
 -18   8  22   13.50    4.30
  22  18  -8   11.50    3.60
 -20   8  22  236.08   14.60
 -22  20   8  201.08   13.90
  20  -8  22  208.08   14.20
  22  20  -8  196.58   13.40
 -10  22   0 2468.25  128.39
   0 -10  22 2499.85  127.69
  22   0  10 2381.46  128.39
 -10  22   2 2108.59  106.29
   2 -10  22 1967.80  105.69
  22  -2  10 1952.10  106.19
  -2 -10  22 2109.29  105.19
 -10  22  -2 1979.80  106.19
  22   2  10 2009.00  106.29
  22  -4  10 1147.39   58.79
 -10  22   4 1087.49   58.69
   4 -10  22 1123.39   58.39
 -22   4  10 1052.59   58.59
 -10  22  -4 1098.79   58.79
  22  -6  10  374.56   21.20
   6 -10  22  354.56   20.90
 -10  22   6  386.56   21.20
 -22   6  10  367.16   21.20
  22   6 -10  368.36   20.70
 -10  22  -6  374.56   21.20
  22  -8  10 1248.78   62.69
   8 -10  22 1089.59   62.39
 -22   8  10 1212.98   62.59
  22   8 -10 1171.08   61.99
 -10  22  -8 1146.69   62.49
  22  10 -10 3233.08  163.98
  10  22 -10 3362.16  163.78
  10 -10  22 2914.21  164.38
 -22  10  10 3165.68  164.48
  22 -10  10 3274.87  164.58
 -10  22 -10 2918.11  164.38
  10  22 -12 3125.59  156.28
 -22  12  10 3178.88  157.68
  22  12 -10 2976.60  156.88
  12 -10  22 2973.20  157.58
  22 -12  10 3046.60  157.58
 -10  22 -12 2757.42  157.38
  14 -10  22  802.62   45.80
  22 -14  10  857.31   45.80
 -22  14  10  846.92   45.80
  22  14 -10  862.01   45.00
 -14  10  22  853.01   45.80
 -22  16  10  258.27   16.70
  16 -10  22  280.27   17.10
  22  16 -10  277.87   15.80
  22 -16  10  286.07   16.90
 -16  10  22  260.47   16.70
 -22  18  10  420.06   23.80
  18 -10  22  391.16   24.00
 -18  10  22  415.96   24.00
  22  18 -10  414.66   22.80
  22  20 -10  980.10   52.79
 -22  20  10 1016.70   53.79
  20 -10  22  990.70   53.99
  22   0  12 2597.44  139.29
   0 -12  22 2676.53  138.49
 -12  22   0 2708.03  139.39
   2 -12  22 2082.49  101.99
  22  -2  12 1817.12  102.39
 -22   2  12 1807.82  102.29
 -12  22   2 2029.40  102.59
  22   2  12 2004.00  102.59
 -12  22  -2 1950.20  102.59
  22  -4  12  980.10   54.69
 -12  22   4 1072.69   54.79
   4 -12  22 1078.69   54.49
 -22   4  12 1001.30   54.69
 -12  22  -4  988.20   54.69
  22  -6  12  511.25   28.20
 -12  22   6  500.35   28.00
   6 -12  22  462.95   27.80
 -22   6  12  480.95   28.00
 -12  22  -6  571.14   28.40
  22  -8  12 1274.77   71.79
 -12  22   8 1283.77   71.69
   8 -12  22 1320.97   71.79
 -22   8  12 1344.37   71.89
 -12  22  -8 1546.35   72.19
  22 -10  12 2948.91  155.08
 -22  10  12 2962.70  154.98
 -12  22  10 3014.20  154.88
  10 -12  22 3123.69  155.08
 -12  22 -10 2752.92  154.88
 -12  22  12 3253.87  164.58
 -22  12  12 3075.69  164.68
  22 -12  12 3241.28  164.68
  12 -12  22 3055.79  164.68
 -12  22 -12 3102.99  164.68
  14 -12  22 1145.29   60.79
 -22  14  12 1136.89   60.69
  22 -14  12 1111.99   60.59
  16 -12  22  245.48   16.20
 -16  12  22  257.97   16.10
  22 -16  12  259.27   16.10
 -22  16  12  250.77   15.90
 -18  12  22  419.46   25.00
  18 -12  22  460.85   25.40
 -22  18  12  407.96   24.80
 -20  12  22 1291.47   61.69
 -22  20  12 1085.19   60.99
  20 -12  22 1034.70   61.29
 -14  22   0 1090.49   57.89
  22   0  14 1074.29   57.89
  22  -2  14  487.05   26.70
 -14  22   2  470.75   26.60
   2 -14  22  492.55   25.90
 -22   2  14  457.15   26.40
  22   2  14  469.35   26.70
 -14  22  -2  473.55   26.60
  22  -4  14   27.00    4.60
 -14  22   4   33.00    4.70
 -22   4  14   21.80    4.20
 -14  22  -4   30.00    4.70
   6 -14  22   34.30    4.30
 -14  22   6   44.50    5.20
 -22   6  14   25.30    4.50
  22  -6  14   39.80    5.30
 -14  22  -6   34.90    4.90
 -22   8  14   84.39    7.70
  22  -8  14   81.39    7.50
   8 -14  22   79.49    7.30
 -14  22   8   75.29    7.10
 -14  22  -8   89.39    7.80
 -14  22  10  855.61   44.60
 -22  10  14  830.92   44.70
  10 -14  22  835.82   44.60
  22 -10  14  719.73   44.60
 -14  22 -10  869.21   44.80
  22 -12  14 1147.99   60.49
  12 -14  22 1173.98   60.59
 -14  22  12 1090.49   60.29
 -22  12  14 1086.89   60.39
 -14  22 -12 1135.19   60.49
 -22  14  14  273.77   16.90
  22 -14  14  274.67   16.90
  14 -14  22  261.17   17.00
 -14  22  14  268.27   16.60
 -16  14  22    1.70    4.10
 -14  22  16    2.30    3.70
  22 -16  14    4.50    4.00
 -22  16  14    2.60    4.00
  16 -14  22    2.50    4.30
 -22  18  14   14.60    5.00
  18 -14  22   19.60    5.40
  22 -18  14   17.70    4.90
 -18  14  22   15.00    4.70
 -14  22  18   16.90    4.80
 -22  20  14  265.57   17.30
 -20  14  22  242.68   17.20
  20 -14  22  273.27   17.70
 -14  22  20  276.97   17.10
  22   0  16  379.66   22.70
 -16  22   0  418.56   22.90
 -22   2  16  116.09    8.80
  22  -2  16  123.09    9.30
 -16  22   2  121.89    9.10
  22   2  16  114.19    9.00
 -16  22  -2  119.19    9.10
  22  -4  16   89.09    7.70
 -22   4  16   84.29    7.40
 -16  22   4   62.99    7.10
 -16  22  -4   91.69    7.70
 -16  22   6  346.57   20.40
 -22   6  16  350.16   20.60
  22  -6  16  354.16   20.70
 -16  22  -6  355.36   20.50
  22  -8  16   20.10    4.40
 -16  22   8   15.80    3.90
   8 -16  22   20.50    4.00
 -22   8  16   20.90    4.50
 -16  22  -8   16.20    4.20
  10 -16  22  256.57   16.20
 -16  22  10  270.57   16.30
  22 -10  16  264.37   16.50
 -22  10  16  274.07   16.60
 -16  22 -10  256.27   16.40
  22 -12  16  256.57   16.30
  12 -16  22  256.27   16.20
 -22  12  16  256.17   16.30
 -16  22  12  254.47   15.80
  22 -14  16    4.70    4.10
  14 -16  22    0.40    4.20
 -16  22  14    0.10    3.70
 -22  14  16    2.90    4.30
 -22  16  16  108.19   10.00
  16 -16  22  123.09   10.50
 -16  16  22  116.09   10.10
 -16  22  16  106.79    9.60
  22 -16  16  109.79   10.10
 -16  22  18   52.09    6.90
 -22  18  16   55.49    7.10
  18 -16  22   48.00    7.00
  22 -18  16   39.40    6.10
 -18  16  22   28.30    5.60
 -20  16  22   23.80    5.90
  20 -16  22   36.00    6.70
 -22  20  16   42.30    6.90
 -16  22  20   35.60    6.20
 -18  22   0  502.05   27.50
  22   0  18  477.85   27.50
  22  -2  18  278.87   17.00
 -18  22   2  280.47   16.90
 -22   2  18  252.37   16.60
  22   2  18  274.77   16.80
 -18  22  -2  307.97   17.00
  22  -4  18    1.40    3.40
 -18  22   4    3.90    3.80
 -22   4  18    5.60    3.70
 -18  22  -4    1.90    3.50
 -22   6  18   59.19    6.40
 -18  22   6   47.00    5.80
  22  -6  18   43.70    5.80
 -18  22  -6   65.09    6.70
 -18  22   8   13.20    4.00
  22  -8  18   10.20    4.10
 -22   8  18   12.70    4.40
 -18  22  -8   10.70    4.20
  18  22 -10  394.36   22.10
 -22  10  18  432.36   23.80
 -18  22  10  393.56   23.20
  22 -10  18  406.76   23.60
 -18  22 -10  387.26   23.50
 -22  12  18  443.56   25.20
 -18  22  12  395.76   24.50
  22 -12  18  437.16   25.20
  12 -18  22  441.16   24.90
  22 -14  18   17.80    5.20
  14 -18  22   16.50    5.00
 -18  22  14   23.40    5.10
 -22  14  18   20.70    5.60
  22 -16  18   44.00    6.60
 -18  22  16   40.70    6.00
 -22  16  18   35.80    6.40
  16 -18  22   38.80    6.50
 -16  18  22   52.49    6.90
 -18  22  18    8.60    5.10
  18 -18  22    2.70    5.00
  22 -18  18    7.10    5.20
 -18  18  22   12.10    5.20
 -22  18  18    9.80    5.30
 -22  20  18  182.78   15.20
 -18  22  20  219.18   15.50
 -20  18  22  229.28   15.80
  20 -18  22  239.28   16.20
  22   0  20 1138.69   61.19
 -20  22   0 1143.19   61.09
  22  -2  20  963.20   51.39
 -20  22   2  947.61   51.29
 -22   2  20  931.21   51.09
 -20  22  -2  957.30   51.29
  22  -4  20  366.66   22.80
 -20  22   4  390.36   22.80
 -22   4  20  423.56   23.00
 -20  22  -4  397.16   23.00
  22  -6  20   77.99    8.00
 -20  22   6   64.29    7.50
 -22   6  20   81.09    8.40
 -20  22  -6   76.59    7.90
  22  -8  20  194.58   13.70
  20  22  -8  203.18   13.20
 -22   8  20  212.38   14.10
 -20  22   8  207.88   13.60
 -20  22  -8  198.38   13.80
 -20  22  10  947.41   53.39
  20  22 -10 1013.20   52.39
 -22  10  20  997.30   53.69
  22 -10  20  992.20   53.59
 -20  22  12 1099.49   62.09
  22 -12  20 1213.88   62.49
 -22  12  20 1150.38   62.29
  22 -14  20  262.07   17.40
 -22  14  20  267.57   17.60
 -20  22  14  267.27   17.10
 -16  20  22   24.10    5.70
  22 -16  20   49.50    7.30
 -20  22  16   25.00    5.50
 -22  16  20   26.10    6.00
  22 -18  20  220.88   15.90
 -22  18  20  200.88   15.70
 -20  22  18  223.98   15.60
 -18  20  22  223.68   15.50
 -22  20  20  534.85   31.30
 -22  22   0 1783.12   94.19
  22   0  22 1780.12   94.29
 -22   2  22 1407.96   75.19
  22  -2  22 1421.16   75.39
 -22  22   2 1391.66   75.19
 -22  22  -2 1433.86   75.29
 -22   4  22  630.94   34.90
  22  -4  22  601.64   34.70
 -22  22   4  619.04   34.60
 -22  22  -4  643.34   34.70
 -22   6  22  111.69   10.30
  22  -6  22  109.09   10.00
 -22  22   6  108.59    9.60
 -22  22  -6  108.29    9.60
 -22   8  22  336.67   19.90
 -22  22   8  290.27   19.20
  22  -8  22  327.87   19.70
  22  22  -8  312.47   19.00
 -22  10  22 1518.75   79.69
 -22  22  10 1495.05   79.29
  22 -10  22 1463.65   79.49
  22  22 -10 1477.75   78.39
 -22  12  22 1768.22   86.79
 -22  22  12 1683.83   86.29
  22 -12  22 1412.86   86.29
 -22  14  22  611.94   33.50
 -22  22  14  535.05   32.70
 -14  22  22  579.74   32.90
  22 -14  22  584.24   33.20
 -22  16  22  165.78   13.40
 -22  22  16  137.59   12.60
 -16  22  22  148.59   12.90
  22 -16  22  163.88   13.70
 -18  22  22  323.27   20.90
  22 -18  22  322.37   21.30
  23   1  -1 2968.40  173.58
  23  -1   1 3538.65  173.78
  23  -1  -1 3288.47  173.78
  23   1   1 3516.25  173.78
  23  -3   1 1687.03   87.99
  23   3  -1 1604.94   87.79
  23  -3  -1 1672.53   87.89
  23   3   1 1703.23   87.89
  23  -5   1    8.30    3.10
   1  23  -5    8.60    2.90
  23   5  -1    7.30    3.20
  -1  23  -5    8.30    2.90
  23   5   1    5.80    3.20
  23  -5  -1   10.70    3.30
  23  -7   1  210.08   12.20
  23   7  -1  180.68   12.10
   1  23  -7  184.28   11.80
  23   7   1  189.78   12.20
  -1  23  -7  183.08   11.90
  23  -7  -1  206.88   12.20
   1  23  -9 1377.76   67.29
  23  -9   1 1389.16   67.59
  23   9  -1 1130.59   67.29
  23  -9  -1 1349.27   67.59
  -1  23  -9 1223.88   67.29
  23   9   1 1153.98   67.39
   1  23 -11 2260.07  113.89
  23 -11   1 2183.28  114.19
 -23  11   1 2361.26  114.39
 -11  -1  23 2296.47  113.59
  -1  23 -11 2044.70  113.89
  23  11   1 1897.31  113.99
   1  23 -13 1293.37   65.69
 -13   1  23 1221.98   65.69
 -23  13   1 1201.58   66.09
 -23  13  -1 1246.88   66.19
 -13  -1  23 1256.37   65.49
  -1  23 -13 1237.08   65.79
 -23  15   1  326.57   18.00
 -15   1  23  246.68   17.20
 -23  15  -1  315.27   17.90
 -15  -1  23  318.17   17.10
 -23  17   1  161.08   11.10
 -17   1  23  162.08   10.60
 -23  17  -1  140.79   10.90
 -17  -1  23  162.58   10.10
 -19   1  23  433.46   25.10
  19  -1  23  463.45   25.60
 -23  19   1  446.56   25.40
 -23  19  -1  454.45   25.50
 -19  -1  23  435.06   24.70
 -21   1  23 1043.10   58.19
  21  -1  23 1157.48   58.79
 -23  21   1 1066.69   58.49
  21   1  23 1102.69   58.69
 -23  21  -1 1078.29   58.49
  23  -1   3 1795.42   88.89
  23   1  -3 1624.54   88.69
  23  -1  -3 1504.15   88.49
  23   1   3 1812.32   88.89
  23  -3   3 1103.49   56.69
  23   3  -3 1028.10   56.49
  23  -3  -3 1094.09   56.59
  -3  23  -3 1002.90   56.39
  23   3   3 1073.39   56.59
  23   5  -3   -0.50    2.50
  23  -5   3    2.20    2.90
  23  -5  -3   -0.80    2.70
  -3  23  -5    0.20    2.50
  23   5   3    1.50    2.80
   3  23  -7   10.80    3.00
  23   7  -3    7.10    3.10
  23  -7   3    5.70    3.30
  23  -7  -3    9.60    3.20
  -3  23  -7    9.30    3.20
  23   7   3    7.30    3.50
 -23   9   3  648.34   32.50
  23   9  -3  525.05   32.10
  23  -9   3  626.24   32.50
   3  23  -9  607.44   32.00
  23   9   3  615.04   32.50
  -3  23  -9  512.75   32.00
 -23  11   3 1207.28   62.29
  23 -11   3 1241.68   62.29
   3  23 -11 1138.29   61.69
  23  11  -3 1054.19   62.09
  -3  23 -11 1084.09   61.99
 -11  -3  23 1280.47   61.29
   3  23 -13  323.47   18.30
 -13   3  23  330.27   18.80
  23  13  -3  326.17   19.10
 -23  13   3  323.37   19.00
  23 -13   3  340.47   19.20
 -13  -3  23  313.17   17.70
  -3  23 -13  326.57   18.80
  15  -3  23    1.00    3.20
 -23  15   3    3.50    3.20
 -15   3  23    1.60    3.00
  23  15  -3   -0.90    3.40
 -23  15  -3    0.50    3.30
  17  -3  23   16.40    4.50
 -23  17   3   12.80    4.10
 -17   3  23   10.80    3.90
 -23  17  -3   19.30    4.40
 -23  19   3  108.09    9.20
 -19   3  23  122.09    9.50
  19  -3  23  127.49    9.80
 -23  19  -3  106.89    9.30
  21  -3  23  575.44   34.40
 -23  21   3  661.43   34.50
 -21   3  23  604.34   34.40
 -23  21  -3  631.14   34.40
  23   1  -5    7.00    2.90
  23  -1   5    9.30    3.20
  23   1   5    7.40    3.30
  23  -1  -5    7.10    2.90
  -5  23  -1    5.00    2.70
  23  -3   5    2.00    2.90
  23   3  -5    3.80    2.90
  23  -3  -5    3.60    2.70
  23   3   5   -0.20    2.80
  -5  23  -3   -0.10    2.60
  23  -5   5  636.94   32.80
  23   5  -5  562.34   32.50
  23   5   5  591.84   32.70
  23  -5  -5  591.94   32.60
  -5  23  -5  592.94   32.50
  23  -7   5  498.75   27.00
  23   7  -5  477.95   26.70
 -23   7   5  470.35   26.80
  -5  23  -7  462.55   26.80
  23   7   5  501.55   27.00
   5  23  -9   16.00    3.10
   9  -5  23    7.30    3.30
  23  -9   5   14.00    3.60
  23   9  -5   10.20    3.30
 -23   9   5   14.90    3.60
  -5  23  -9    8.70    3.00
  23  11  -5  324.07   18.40
 -23  11   5  329.67   18.70
  11  -5  23  297.57   18.60
  23 -11   5  322.77   18.60
   5  23 -11  335.47   18.00
  -5  23 -11  290.27   18.40
  13  -5  23   10.10    3.60
 -13   5  23    7.80    3.30
  23  13  -5    9.70    3.50
   5  23 -13   11.90    2.70
 -23  13   5   10.00    3.50
  23 -13   5   12.50    3.80
  -5  23 -13   11.80    3.60
  15  -5  23  308.47   18.40
 -23  15   5  320.17   18.30
  23  15  -5  308.17   18.10
 -15   5  23  286.17   17.90
 -23  17   5  325.27   19.50
  17  -5  23  313.77   19.70
  23  17  -5  326.47   19.50
 -17   5  23  356.66   19.70
  23  19  -5    4.90    4.20
  19  -5  23   -0.10    3.90
 -19   5  23   -0.50    3.90
 -23  19   5    1.10    3.60
 -23  19  -5    0.90    3.80
 -23  21   5  104.09    9.30
  21  -5  23   97.19    9.70
 -21   5  23  116.79   10.00
 -23  21  -5  113.79    9.80
   1  -7  23  225.98   12.70
  23  -1   7  235.98   13.50
  -7  23   1  212.78   13.20
  23   1  -7  189.78   12.90
  23   1   7  227.68   13.40
  -1  -7  23  224.88   12.40
  23  -1  -7  183.58   12.90
  -7  23  -1  208.48   13.10
   3  -7  23   10.80    2.90
  23  -3   7   13.00    3.60
  23   3  -7    7.10    2.90
  -7  23   3    6.90    3.00
  -3  -7  23    6.50    2.00
  23   3   7    6.80    3.10
  -7  23  -3   10.20    3.20
 -23   5   7  508.35   27.60
   5  -7  23  523.55   27.40
  23   5  -7  463.95   27.20
  23  -5   7  494.75   27.60
  23   5   7  524.95   27.70
  -5  -7  23  458.55   26.10
  -7  23  -5  499.75   27.60
  23   7  -7  561.64   30.00
   7  -7  23  557.44   30.10
 -23   7   7  583.24   30.20
  -7  23  -7  478.95   29.90
  23   9  -7   15.10    3.50
 -23   9   7   13.00    3.50
   9  -7  23   14.20    3.80
   7  23  -9   18.80    3.20
  23  -9   7   15.50    3.80
  -7  23  -9   18.90    4.00
 -23  11   7  554.44   28.90
  23 -11   7  513.15   28.70
  11  -7  23  517.35   28.90
   7  23 -11  493.15   28.00
  23  11  -7  530.35   28.50
  -7  23 -11  491.85   28.70
 -23  13   7   89.09    7.70
   7  23 -13   79.89    5.80
  23  13  -7   88.19    7.20
  23 -13   7   78.69    7.30
  13  -7  23   77.09    7.90
  -7  23 -13   83.39    7.60
 -15   7  23  140.99   10.10
  15  -7  23  138.39   10.40
 -23  15   7  134.09   10.10
  23 -15   7  129.29   10.10
  23  15  -7  142.19    9.70
  23  17  -7  199.48   13.60
  17  -7  23  224.38   14.40
 -17   7  23  225.68   14.20
 -23  17   7  214.98   14.00
 -19   7  23    5.00    4.40
  19  -7  23    7.70    4.50
 -23  19   7   -2.00    3.60
  23  19  -7    3.00    3.80
  23  21  -7   41.30    6.00
  21  -7  23   60.99    7.20
 -21   7  23   50.09    6.70
 -23  21   7   59.89    6.80
   1  -9  23 1301.77   70.59
  23  -1   9 1393.86   71.29
  -9  23   1 1353.26   71.09
  -9  23  -1 1353.96   71.19
  -1  -9  23 1361.36   70.39
  23   1   9 1291.37   71.19
  23  -3   9  636.44   33.50
  23   3  -9  572.04   33.00
  -9  23   3  582.04   33.20
   3  -9  23  590.84   32.90
  23   3   9  597.64   33.40
  -9  23  -3  677.03   33.60
  -9  23   5   12.10    3.50
   5  -9  23   14.30    3.30
  23  -5   9   15.40    3.60
 -23   5   9   14.30    3.60
  23   5  -9   11.50    3.20
  -9  23  -5   15.60    3.60
  23   5   9    9.50    3.40
   7  -9  23   16.80    3.70
  23   7  -9   20.00    3.50
  23  -7   9   19.50    4.10
 -23   7   9   13.10    3.60
  -9  23  -7   16.60    3.80
 -23   9   9  930.91   48.60
  23   9  -9  929.01   48.10
   9  -9  23  826.42   48.40
  23  -9   9  952.80   48.60
  -9  23  -9  860.51   48.40
 -23  11   9 2162.28  109.39
  23 -11   9 2030.50  109.19
  23  11  -9 2088.59  108.79
   9  23 -11 2163.68  108.39
  -9  23 -11 1929.01  109.09
 -23  13   9  842.62   44.40
   9  23 -13  813.22   42.80
  13  -9  23  765.32   44.30
  23  13  -9  830.12   43.80
  23 -13   9  827.82   44.30
  -9  23 -13  813.42   44.30
 -23  15   9   84.79    8.10
  23  15  -9   89.09    7.50
  23 -15   9   86.59    8.10
 -15   9  23   93.29    8.30
  15  -9  23   92.49    8.70
 -23  17   9   27.50    4.80
  23  17  -9   32.30    4.60
  17  -9  23   23.00    5.10
 -17   9  23   23.40    4.50
  19  -9  23  178.58   13.20
 -19   9  23  194.88   13.20
 -23  19   9  174.78   12.60
  23  19  -9  183.68   12.10
  21  -9  23  565.04   32.60
 -21   9  23  610.74   33.00
  23  21  -9  569.14   31.80
 -23  21   9  559.14   32.30
  23  -1  11 2065.09  115.99
   1 -11  23 2241.88  115.49
 -11  23   1 2176.98  115.99
  -1 -11  23 2207.68  115.09
  23   1  11 2321.47  116.19
 -11  23  -1 2247.78  116.09
  23  -3  11 1139.29   63.99
 -23   3  11 1167.78   63.89
 -11  23   3 1238.88   63.99
   3 -11  23 1193.68   63.59
 -11  23  -3 1312.87   64.19
  23   3  11 1163.38   63.99
 -23   5  11  319.77   18.40
  23  -5  11  331.57   18.60
 -11  23   5  313.87   18.40
   5 -11  23  308.07   18.00
 -11  23  -5  296.07   18.40
 -11  23   7  552.24   29.70
 -23   7  11  518.25   29.70
  23  -7  11  526.25   29.70
   7 -11  23  558.04   29.60
 -11  23  -7  519.35   29.80
 -23   9  11 2011.20  106.79
 -11  23   9 2126.69  106.79
   9 -11  23 1948.11  106.69
 -11  23  -9 2023.30  106.79
  11 -11  23 2740.33  167.98
 -23  11  11 3287.47  168.38
  23  11 -11 3312.67  167.58
  23 -11  11 3146.79  168.18
  11  23 -11 3349.76  167.28
 -11  23 -11 3458.05  168.48
 -23  13  11 1547.95   79.59
  13 -11  23 1433.06   79.59
  23  13 -11 1515.65   78.79
  23 -13  11 1541.35   79.59
 -11  23 -13 1452.85   79.59
  15 -11  23  472.25   26.70
 -23  15  11  447.36   26.40
  23  15 -11  469.45   25.40
 -15  11  23  456.55   26.50
  23 -15  11  476.15   26.60
 -23  17  11  227.88   14.90
 -17  11  23  220.88   14.90
  23  17 -11  222.88   13.40
  17 -11  23  215.48   15.10
  23 -17  11  249.48   15.10
  19 -11  23  647.44   35.90
  23  19 -11  633.14   34.20
 -19  11  23  669.43   36.00
 -23  19  11  608.44   35.50
 -23  21  11 1314.87   73.79
  23  21 -11 1373.06   72.39
  21 -11  23 1460.25   74.29
  23  -1  13 1224.58   66.79
 -13  23   1 1303.97   66.89
   1 -13  23 1237.68   65.99
  23   1  13 1265.87   66.89
 -13  23  -1 1250.17   66.89
  23  -3  13  326.17   19.40
 -23   3  13  320.47   19.30
 -13  23   3  346.87   19.40
 -13  23  -3  346.47   19.40
  23   3  13  323.97   19.50
 -23   5  13    8.10    3.50
 -13  23   5   12.40    3.60
  23  -5  13   13.50    3.80
 -13  23  -5   10.40    3.50
   7 -13  23   82.39    7.20
 -13  23   7   74.09    7.40
 -23   7  13   76.39    7.60
  23  -7  13   85.59    7.60
 -13  23  -7   85.09    7.60
 -23   9  13  861.01   45.90
   9 -13  23  829.12   45.70
 -13  23   9  808.82   45.60
  23  -9  13  815.62   45.80
 -13  23  -9  904.81   45.90
  13  23 -11 1659.03   78.09
  23 -11  13 1495.05   79.29
 -13  23  11 1502.15   79.19
  11 -13  23 1256.47   79.19
 -23  11  13 1544.05   79.39
 -13  23 -11 1495.55   79.39
 -13  23  13  941.71   49.80
  23 -13  13  931.31   49.99
 -23  13  13  892.71   49.90
  15 -13  23  113.89   10.40
 -23  15  13  127.39   10.00
 -15  13  23  127.39   10.20
  23 -15  13  122.49   10.10
 -13  23  15  125.89   10.00
  17 -13  23   23.40    5.60
 -17  13  23   21.70    5.10
  23 -17  13   24.20    5.40
 -23  17  13   16.80    4.70
 -19  13  23  192.78   14.00
 -23  19  13  186.58   13.50
  19 -13  23  199.78   14.50
 -23  21  13  764.32   40.60
 -21  13  23  605.34   40.60
  21 -13  23  824.22   41.20
 -15  23   1  330.57   18.30
  23  -1  15  288.97   18.00
  23   1  15  304.27   18.10
 -15  23  -1  295.17   18.00
  23  -3  15   -1.70    3.20
 -23   3  15   -0.90    3.10
 -15  23   3    2.00    3.20
  23   3  15   -1.40    3.20
 -15  23  -3    0.60    3.30
  23  -5  15  303.37   18.20
 -15  23   5  305.97   18.00
 -23   5  15  302.67   18.10
 -15  23  -5  300.47   18.10
  23  -7  15  144.69   10.40
 -15  23   7  137.79   10.10
 -23   7  15  136.79   10.30
 -15  23  -7  135.99   10.40
   9 -15  23   75.69    7.80
 -23   9  15   86.79    8.20
  23  -9  15   85.69    8.30
 -15  23   9   79.49    7.80
 -15  23  -9   97.99    8.40
 -23  11  15  454.45   26.20
  23 -11  15  473.85   26.50
  11 -15  23  473.35   26.20
 -15  23  11  452.15   26.00
  15  23 -11  463.75   24.50
 -15  23 -11  426.96   26.10
 -23  13  15  132.79   10.50
 -15  23  13  123.79    9.80
  23 -13  15  128.99   10.50
  13 -15  23  130.59   10.70
 -15  15  23    7.50    4.40
 -15  23  15   11.80    4.50
 -23  15  15    8.00    4.70
  15 -15  23   10.80    4.70
  23 -15  15   12.50    4.50
  23 -17  15   83.79    9.00
 -23  17  15   78.99    9.10
 -15  23  17   91.09    9.10
 -17  15  23   88.59    9.30
  17 -15  23   85.69    9.90
 -19  15  23    2.10    4.70
  19 -15  23    0.80    5.40
 -23  19  15    2.10    4.60
 -15  23  19    6.20    4.90
 -23  21  15  112.79   11.00
 -15  23  21  120.69   11.40
  21 -15  23  131.39   12.40
 -21  15  23  126.29   12.10
  23  -1  17  158.98   11.10
 -17  23   1  155.68   10.90
 -17  23  -1  151.08   10.90
  23   1  17  153.78   11.10
 -17  23   3   13.70    4.00
 -23   3  17   14.00    4.10
  23  -3  17    9.80    3.90
  23   3  17   10.00    3.80
 -17  23  -3   11.80    3.80
  23  -5  17  332.37   20.20
 -23   5  17  341.77   20.20
 -17  23  -5  350.16   20.30
 -17  23   7  207.18   13.70
  23  -7  17  216.88   14.20
 -23   7  17  219.48   14.30
 -17  23  -7  214.48   14.10
 -17  23   9   32.00    5.00
  23  -9  17   36.60    5.60
 -23   9  17   31.20    5.30
 -17  23  -9   35.10    5.60
  23 -11  17  183.08   14.40
  17  23 -11  233.78   12.40
 -23  11  17  217.98   14.70
 -17  23  11  227.78   14.30
  23 -13  17   25.10    5.40
 -23  13  17   30.40    5.70
  13 -17  23   27.50    5.40
 -17  23  13   17.20    4.60
  15 -17  23   81.99    9.40
 -23  15  17   86.59    9.40
 -17  23  15   88.49    9.00
 -15  17  23   79.49    9.00
  23 -15  17   85.59    9.10
  17 -17  23  130.49   11.40
  23 -17  17  122.39   10.90
 -17  17  23  127.59   11.00
 -23  17  17  110.49   11.10
 -17  23  17  119.69   10.70
  23 -19  17    4.30    5.60
 -17  23  19   -0.70    4.70
 -23  19  17    3.70    5.30
  19 -17  23    2.90    5.40
 -19  17  23    0.20    5.10
 -17  23  21   74.49    8.60
 -23  21  17   73.69    8.60
  21 -17  23   96.69    9.80
  23  -1  19  432.46   25.10
 -19  23   1  465.65   25.20
  23   1  19  435.36   25.10
 -19  23  -1  420.86   25.00
  23  -3  19  109.49    9.20
 -19  23   3   94.09    8.80
 -23   3  19  108.69    9.20
 -19  23  -3  119.99    9.30
 -19  23   5    0.50    3.70
 -23   5  19   -0.40    3.80
  23  -5  19    3.30    4.10
 -19  23  -5   -0.30    3.70
 -23   7  19   -2.60    4.10
  23  -7  19    1.70    3.90
 -19  23   7    1.70    3.80
 -19  23  -7    1.30    3.90
 -23   9  19  181.48   13.10
  19  23  -9  169.18   11.70
  23  -9  19  167.88   12.50
 -19  23  -9  195.98   12.80
 -19  23  11  659.43   36.40
 -23  11  19  674.13   36.70
  19  23 -11  631.64   34.40
 -19  23  13  185.58   13.30
  23 -13  19  194.68   13.80
 -23  13  19  186.18   13.80
 -23  15  19    2.40    4.90
  15 -19  23    4.10    6.40
 -19  23  15    1.80    4.70
  23 -15  19    2.70    5.20
 -15  19  23    1.60    4.50
  17 -19  23    0.30    5.20
 -17  19  23    3.50    5.20
  23 -17  19    2.10    5.40
 -23  17  19    1.00    5.20
 -19  23  17    2.60    5.10
  19 -19  23  130.79   12.80
 -23  19  19  123.49   12.40
 -19  23  19  124.49   11.50
 -19  19  23  122.09   12.10
  23 -19  19  115.19   12.10
  23  -1  21 1167.28   60.29
 -21  23   1 1077.19   60.09
 -21  23  -1 1048.80   59.99
  23   1  21 1191.98   60.39
 -23   3  21  636.84   34.60
 -21  23   3  567.54   34.30
  23  -3  21  635.14   34.70
 -21  23  -3  646.54   34.70
 -23   5  21  114.69   10.00
  23  -5  21  100.49    9.60
 -21  23   5  101.19    9.30
 -21  23  -5  104.19    9.50
 -21  23   7   61.99    6.80
  23  -7  21   61.69    6.90
 -23   7  21   48.10    6.70
 -21  23  -7   35.10    5.80
 -23   9  21  565.34   31.90
 -21  23   9  514.85   31.20
  23  -9  21  571.44   31.60
  21  23  -9  576.04   30.90
 -23  11  21 1476.65   74.59
  23 -11  21 1322.97   74.29
 -21  23  11 1365.26   74.09
 -23  13  21  819.42   42.50
  23 -13  21  755.12   42.20
 -21  23  13  703.23   41.90
  23 -15  21  129.59   12.10
 -15  21  23  119.19   11.00
 -23  15  21  104.99   11.60
 -21  23  15  103.59   10.30
 -17  21  23   41.10    6.50
 -23  17  21   19.30    6.40
 -21  23  17   69.19    7.50
  23  -1  23 1234.38   63.19
 -23  23   1 1200.58   62.99
 -23  23  -1 1148.89   62.89
  23   1  23 1114.89   62.99
 -23   3  23  446.66   26.20
  23  -3  23  480.65   26.30
 -23  23   3  419.26   25.90
 -23  23  -3  451.45   26.00
 -23   5  23   57.39    7.40
  23  -5  23   62.99    7.50
 -23  23   5   70.79    7.30
 -23  23  -5   39.90    6.20
 -23   7  23   25.90    6.10
  23  23  -7   24.90    5.80
 -23  23   7   27.60    5.50
  23  -7  23   18.90    5.30
 -23  23  -7   17.80    5.10
 -23   9  23  424.96   24.80
 -23  23   9  400.56   23.90
  23  -9  23  418.96   24.40
  23  23  -9  380.56   23.40
 -23  11  23  914.51   50.59
 -23  23  11  854.91   49.90
  23 -11  23  983.00   50.69
 -23  13  23  448.36   26.40
 -23  23  13  401.06   25.50
  23 -13  23  442.36   26.30
 -23  15  23    3.10    6.40
 -23  23  15   37.30    7.20
 -15  23  23   14.60    5.60
  23 -15  23   26.50    6.90
 -23  17  23   -2.50    6.40
 -23  23  17    8.40    6.10
 -17  23  23    0.30    5.50
  23 -17  23   10.70    6.50
  24   0   0 2888.21  151.08
  24   2   0 1825.62   96.49
  24  -2   0 1837.12   96.49
  24  -4   0    2.20    2.80
   0  24  -4    0.60    2.60
  24   4   0    1.10    2.80
   0  24  -6   14.60    3.40
  24   6   0   14.10    3.80
  24  -6   0   19.70    4.00
  24  -8   0  459.85   24.20
   0  24  -8  382.16   23.70
  24   8   0  440.76   24.20
  24  10   0 1069.89   61.09
   0  24 -10 1170.08   60.99
  24 -10   0 1200.98   61.19
  24  12   0  942.91   54.19
   0  24 -12  969.90   53.79
 -12   0  24 1087.39   53.69
 -24  12   0 1040.90   54.29
 -14   0  24  303.77   16.50
 -24  14   0  267.77   16.90
   0  24 -14  274.77   16.50
 -24  16   0   47.00    5.70
 -16   0  24   44.60    5.00
 -24  18   0   78.39    7.60
 -18   0  24   70.79    7.00
 -20   0  24  497.45   27.30
 -24  20   0  490.95   27.80
  20   0  24  476.25   27.80
  22   0  24  853.51   47.00
 -24  22   0  868.11   46.90
  24   0   2 1801.22   94.19
  24   0  -2 1773.92   94.19
  24  -2   2 1422.16   69.99
  24   2  -2 1196.68   69.69
  -2  24  -2 1285.57   69.69
  24   2   2 1327.27   69.89
  24  -2  -2 1349.86   69.89
  24   4  -2    1.30    3.00
  24  -4   2    0.10    2.80
  24  -4  -2   -0.30    2.80
  -2  24  -4   -0.10    2.60
  24   4   2    2.20    3.00
   2  24  -6    0.70    2.50
  24  -6   2   -1.80    2.80
  24   6  -2    0.20    2.80
  -2  24  -6   -0.10    2.70
  24   6   2    0.90    3.20
  24  -6  -2   -1.00    2.70
   2  24  -8  194.08   12.30
  24  -8   2  219.98   12.90
  24   8   2  196.38   12.80
  -2  24  -8  173.48   12.50
  24  -8  -2  216.88   12.80
  24  10  -2  678.13   40.90
 -24  10   2  787.52   41.20
   2  24 -10  716.33   40.80
  24 -10   2  801.52   41.20
 -10  -2  24  800.32   40.30
  -2  24 -10  783.12   41.00
  24  10   2  729.13   41.10
  24  12  -2  473.75   29.00
  24 -12   2  530.95   29.10
 -12   2  24  546.25   28.80
 -24  12   2  528.65   29.10
   2  24 -12  497.75   28.60
 -12  -2  24  536.35   28.20
  -2  24 -12  540.65   28.90
   2  24 -14   31.10    4.10
 -24  14   2   21.40    4.20
 -14   2  24   31.00    4.30
  24  14  -2   20.40    4.50
  -2  24 -14   34.90    4.60
 -24  14  -2   36.50    5.10
  16  -2  24   33.30    5.30
 -16   2  24   29.20    4.70
 -24  16   2   44.30    5.40
  24  16  -2   35.20    5.30
 -16  -2  24   33.90    3.80
 -24  16  -2   25.70    4.50
  18  -2  24    0.50    3.80
 -18   2  24   -0.40    3.70
 -24  18   2    0.60    3.50
 -24  18  -2   -1.50    3.60
 -20   2  24  270.07   16.40
  20  -2  24  272.17   16.80
 -24  20   2  243.98   16.20
 -24  20  -2  257.07   16.30
  22  -2  24  546.65   30.20
 -22   2  24  496.75   29.90
 -24  22   2  559.94   30.10
  22   2  24  492.45   30.00
 -24  22  -2  545.85   30.00
  24   0  -4    0.50    2.90
  24   0   4   -1.10    2.90
  24   2  -4    0.90    2.90
  24  -2   4   -0.40    2.80
  24   2   4   -1.90    2.80
  24  -2  -4    0.40    3.00
  -4  24  -2   -0.90    2.70
  24  -4   4  641.14   32.80
  24   4   4  584.74   32.60
  24  -4  -4  566.24   32.50
  -4  24  -4  580.54   32.40
  24   6  -4  564.74   35.50
  24  -6   4  720.63   36.00
  24   6   4  668.53   35.90
  -4  24  -6  651.83   35.70
  24  -6  -4  674.43   35.80
 -24   8   4  148.79   10.00
  24  -8   4  145.99   10.00
   4  24  -8  140.89    9.40
  24   8  -4  127.39    9.70
  24   8   4  142.49   10.10
  -4  24  -8  139.29    9.80
 -24  10   4   27.10    4.30
   4  24 -10   28.50    3.90
  24  10  -4   25.90    4.40
  24 -10   4   28.60    4.40
 -10  -4  24   27.40    3.40
  -4  24 -10   27.90    4.40
   4  24 -12   14.20    3.00
  24  12  -4   12.70    3.60
  24 -12   4   17.20    3.90
 -24  12   4   14.40    3.70
  12  -4  24   11.50    3.70
  -4  24 -12   11.30    3.60
  14  -4  24  176.88   12.40
   4  24 -14  187.38   11.30
 -14   4  24  183.58   12.10
  24  14  -4  179.18   12.40
 -24  14   4  187.48   12.30
  -4  24 -14  199.18   12.30
  16  -4  24  638.34   35.30
 -16   4  24  627.64   35.10
  24  16  -4  668.93   35.30
 -24  16   4  614.64   35.10
 -18   4  24  233.38   15.30
  18  -4  24  205.08   15.10
 -24  18   4  256.07   15.30
  24  18  -4  237.28   15.40
 -24  18  -4  254.47   15.30
  20  -4  24    5.30    4.20
 -24  20   4   13.20    4.60
  24  20  -4    7.40    4.80
 -20   4  24    7.60    4.50
 -24  20  -4    7.20    4.40
 -22   4  24   94.49    9.90
  22  -4  24   85.39    9.20
 -24  22   4   93.09    8.90
 -24  22  -4   94.99    9.40
  24   0  -6   14.00    3.50
  24   0   6   15.90    3.70
  -6  24   0   17.40    3.40
  24   2  -6   -1.30    2.60
  -6  24   2   -3.20    2.60
  24  -2   6    1.00    2.80
  24  -2  -6    1.10    2.90
  -6  24  -2   -0.60    2.70
  24   2   6   -2.70    2.80
  24  -4   6  674.13   37.20
  24   4  -6  608.44   36.90
   4  -6  24  736.03   37.10
  -6  24  -4  707.23   37.20
  24   4   6  686.73   37.30
  24   6  -6 1025.70   58.69
   6  -6  24 1188.58   58.89
  24   6   6 1128.39   58.99
  -6  -6  24 1074.59   57.69
  24  -8   6  399.46   21.60
 -24   8   6  371.56   21.40
   8  -6  24  321.27   21.20
   6  24  -8  383.76   21.00
  24   8  -6  380.96   21.40
  24   8   6  381.96   21.60
  24  10  -6   12.00    3.60
  24 -10   6   15.50    3.80
  10  -6  24    4.20    3.40
 -24  10   6    9.40    3.60
   6  24 -10   10.00    3.00
  -6  24 -10    9.30    3.60
  12  -6  24    8.20    3.60
   6  24 -12   12.50    2.90
  24 -12   6   14.10    3.80
 -24  12   6   12.00    4.00
  24  12  -6   10.10    3.40
  -6  24 -12   12.30    3.90
 -14   6  24  274.97   15.70
  24  14  -6  241.68   15.40
  24 -14   6  250.27   15.70
 -24  14   6  293.47   16.00
  14  -6  24  222.18   15.70
   6  24 -14  245.48   14.30
  -6  24 -14  246.38   15.60
  24  16  -6  832.32   45.00
 -24  16   6  857.01   45.20
  16  -6  24  801.02   45.20
 -16   6  24  828.72   45.10
 -24  18   6  325.57   20.90
 -18   6  24  384.36   21.40
  24  18  -6  363.46   21.00
  18  -6  24  344.77   21.30
 -20   6  24    3.70    4.80
  24  20  -6    3.70    4.40
 -24  20   6    3.40    4.30
  20  -6  24    4.00    4.30
 -24  22   6    0.40    4.20
  22  -6  24    0.00    4.80
 -22   6  24    2.50    5.10
  24  22  -6    0.20    5.00
   0  -8  24  501.05   26.20
  -8  24   0  498.05   26.90
  24   0   8  443.86   26.80
  -8  24   2  198.98   12.70
   2  -8  24  214.98   12.40
  24   2  -8  181.08   12.60
  24  -2   8  213.58   13.00
  -8  24  -2  219.78   12.90
  24   2   8  216.68   13.10
  -2  -8  24  186.08   11.70
   4  -8  24  161.98    9.90
  24  -4   8  138.69   10.00
  24   4  -8  131.69    9.80
  -8  24   4  135.09    9.90
  -8  24  -4  143.29   10.20
  -4  -8  24  152.08    8.40
  24   4   8  146.09   10.30
  24   6  -8  353.06   21.30
   6  -8  24  365.86   21.40
  24  -6   8  391.86   21.70
 -24   6   8  382.06   21.70
  -8  24  -6  382.96   21.70
  24   6   8  384.96   21.80
  24   8  -8    6.40    3.00
 -24   8   8    4.70    3.40
  24  -8   8    4.00    3.30
   8  -8  24    7.10    3.50
  -8  24  -8    7.60    3.60
 -24  10   8  472.15   27.40
  10  -8  24  402.96   27.30
  24  10  -8  486.65   27.20
   8  24 -10  489.25   26.70
  24 -10   8  513.15   27.60
  -8  24 -10  574.84   27.80
  24 -12   8  385.26   21.80
   8  24 -12  351.06   20.50
  24  12  -8  389.06   21.50
  12  -8  24  335.77   21.70
 -24  12   8  405.86   21.90
  -8  24 -12  381.26   21.80
  14  -8  24    0.00    3.70
 -24  14   8    1.40    3.60
  24  14  -8    0.40    3.20
 -14   8  24    1.00    3.50
  24 -14   8    0.30    3.60
  -8  24 -14    1.00    3.70
 -16   8  24  142.99   10.70
 -24  16   8  139.89   10.70
  24 -16   8  145.59   10.60
  24  16  -8  151.08   10.30
  16  -8  24  120.29   10.80
 -18   8  24   38.40    5.80
 -24  18   8   46.00    6.20
  24  18  -8   31.10    5.10
  18  -8  24   43.10    6.30
 -24  20   8   54.69    6.50
 -20   8  24   65.89    7.60
  20  -8  24   60.19    7.10
  24  20  -8   63.79    7.90
 -24  22   8   85.99    9.40
  24  22  -8   90.19    9.80
 -22   8  24   98.59   10.70
  22  -8  24   94.89   10.20
 -10  24   0 1226.18   67.09
  24   0  10 1270.57   67.19
   0 -10  24 1290.87   66.39
 -10  24   2  797.42   43.10
  24  -2  10  789.82   43.20
  24   2  10  742.73   43.00
 -10  24  -2  860.21   43.30
   4 -10  24   25.10    3.80
 -10  24   4   29.10    4.30
  24  -4  10   34.20    4.90
 -10  24  -4   23.20    4.20
  24   4  10   26.30    4.30
 -10  24   6   11.60    3.50
  24  -6  10    6.50    3.40
   6 -10  24   10.10    3.20
  24   6 -10   10.90    3.30
 -24   6  10   10.30    3.70
 -10  24  -6   10.30    3.70
 -24   8  10  459.85   25.90
  24  -8  10  377.46   25.60
 -10  24   8  492.45   25.90
   8 -10  24  490.85   25.90
  24   8 -10  480.15   25.50
 -10  24  -8  446.96   25.90
  10  24 -10 1838.92   90.59
  24  10 -10 1690.03   90.69
 -24  10  10 1741.53   91.29
  24 -10  10 1708.83   91.19
  10 -10  24 1581.34   91.19
 -10  24 -10 1794.52   91.39
 -24  12  10 1149.78   60.59
  24  12 -10 1144.99   59.99
  12 -10  24 1070.19   60.59
  24 -12  10 1176.08   60.59
  10  24 -12 1141.59   59.29
 -10  24 -12 1095.19   60.49
  24 -14  10  247.98   15.90
 -24  14  10  250.67   15.80
  24  14 -10  253.07   15.00
  14 -10  24  252.87   16.10
  24  16 -10   34.20    4.70
  24 -16  10   45.30    5.90
 -16  10  24   51.29    6.40
  16 -10  24   44.00    6.40
 -24  16  10   35.70    5.70
  24  18 -10   87.89    8.00
 -24  18  10   83.89    8.70
 -18  10  24   96.29    9.60
  18 -10  24  105.59    9.80
 -20  10  24  433.56   29.60
 -24  20  10  512.45   29.50
  20 -10  24  550.04   30.00
  24  20 -10  568.64   28.90
  22 -10  24  603.64   31.30
 -24  22  10  561.04   30.80
  24  22 -10  457.25   29.70
   0 -12  24 1156.48   60.09
  24   0  12 1128.39   60.89
 -12  24   0 1135.09   60.89
  24  -2  12  541.15   29.70
 -12  24   2  522.65   29.50
 -12  24  -2  523.45   29.60
  24   2  12  541.15   29.60
 -12  24   4   16.30    4.00
 -24   4  12   16.70    3.90
  24  -4  12   11.90    3.80
  24   4  12   18.40    4.30
 -12  24  -4   13.40    3.90
 -24   6  12   12.90    3.90
   6 -12  24   13.70    4.10
 -12  24   6   17.40    4.00
  24  -6  12    8.70    3.70
 -12  24  -6   16.70    4.10
 -24   8  12  362.66   21.70
  24  -8  12  352.76   21.70
 -12  24   8  368.56   21.60
   8 -12  24  378.26   21.60
 -12  24  -8  404.86   21.90
  24 -10  12 1204.68   62.59
  12  24 -10 1156.98   61.49
 -24  10  12 1156.18   62.49
 -12  24  10 1165.08   62.39
  10 -12  24 1183.48   62.49
 -12  24 -10 1132.89   62.39
  12 -12  24  974.10   50.39
 -24  12  12  974.90   50.39
  24 -12  12  939.61   50.19
  12  24 -12  874.31   48.60
 -12  24  12  968.40   50.19
 -12  24 -12  842.32   50.09
 -24  14  12  203.88   14.40
  24 -14  12  223.48   14.60
  14 -12  24  236.18   15.00
  16 -12  24   11.10    4.90
 -16  12  24    8.60    4.70
 -24  16  12    5.80    4.30
  24 -16  12   10.00    4.50
 -18  12  24   38.00    6.00
 -24  18  12   44.30    6.00
  18 -12  24   30.20    5.90
  20 -12  24  406.96   26.10
 -24  20  12  466.25   25.80
  22 -12  24  439.76   27.80
 -24  22  12  487.95   27.30
  24   0  14  261.57   16.30
 -14  24   0  278.97   16.50
 -14  24   2   27.40    4.50
  24  -2  14   22.20    4.20
 -14  24  -2   23.00    4.30
  24   2  14   25.60    4.40
 -24   4  14  170.78   12.00
 -14  24   4  172.78   11.90
  24  -4  14  190.48   12.30
  24   4  14  185.38   12.30
 -14  24  -4  193.08   12.30
 -24   6  14  256.07   15.80
  24  -6  14  255.17   15.80
 -14  24   6  263.77   15.70
 -14  24  -6  241.98   15.80
 -24   8  14   -1.40    3.50
   8 -14  24    4.00    3.40
 -14  24   8   -1.10    3.30
  24  -8  14   -0.20    3.50
 -14  24  -8    5.20    3.80
  24 -10  14  202.68   15.20
 -14  24  10  240.28   15.20
 -24  10  14  252.97   15.60
  10 -14  24  261.17   15.50
 -14  24 -10  252.57   15.50
 -24  12  14  242.78   15.40
  24 -12  14  220.38   15.20
 -14  24  12  225.68   15.00
  12 -14  24  240.98   15.50
 -14  24 -12  258.67   15.60
 -14  24  14    5.30    4.40
  14 -14  24   -0.40    4.60
 -24  14  14   -2.30    4.10
  24 -14  14    0.20    4.00
 -24  16  14  106.19    9.60
  24 -16  14   91.89    9.40
 -16  14  24   89.69    9.40
 -14  24  16   90.29    9.20
  16 -14  24   97.29   10.30
 -14  24  18   53.29    6.70
  24 -18  14   75.09    7.90
 -18  14  24   50.39    6.90
 -24  18  14   57.79    7.20
  18 -14  24   75.39    8.50
 -20  14  24   50.79    7.80
 -24  20  14   43.80    6.90
 -14  24  20   41.50    6.50
  20 -14  24   52.79    8.10
  22 -14  24   59.99    8.00
 -14  24  22   44.90    6.50
 -22  14  24   41.40    7.40
 -16  24   0   32.10    4.80
  24   0  16   41.90    5.40
  24  -2  16   37.20    5.30
 -16  24   2   37.00    5.20
  24   2  16   39.60    5.60
 -16  24  -2   34.40    5.10
  24  -4  16  639.44   36.00
 -24   4  16  667.13   36.00
 -16  24  -4  652.63   36.00
  24   4  16  651.73   36.00
  24  -6  16  749.42   43.70
 -16  24   6  835.22   43.80
 -24   6  16  780.62   43.90
 -16  24  -6  854.31   44.00
 -16  24   8  154.68   11.10
  24  -8  16  159.18   11.20
 -24   8  16  152.58   11.50
 -16  24  -8  146.79   11.40
 -24  10  16   26.20    5.20
 -16  24  10   31.20    5.00
  24 -10  16   39.90    5.90
 -16  24 -10   47.60    6.20
 -16  24  12    7.80    4.10
  24 -12  16   10.40    4.70
  12 -16  24   11.90    6.60
 -24  12  16   10.90    5.00
 -16  24  14   87.79    9.00
  24 -14  16   99.99    9.70
 -24  14  16   95.69    9.60
  14 -16  24   95.19    9.90
  24 -16  16  333.77   20.10
  16 -16  24  304.07   20.30
 -16  24  16  313.47   19.70
 -24  16  16  351.76   20.30
 -16  16  24  308.47   20.00
 -16  24  18  233.68   15.80
 -24  18  16  222.18   16.00
  18 -16  24  210.88   16.30
  24 -18  16  239.18   16.00
 -18  16  24  233.28   16.00
 -24  20  16    9.80    5.80
 -16  24  20   15.10    5.80
 -20  16  24    3.80    5.60
  20 -16  24   16.30    6.80
 -24  22  16   -3.40    5.80
 -16  24  22   -0.40    5.60
  22 -16  24   -0.40    6.70
 -18  24   0   72.39    7.80
  24   0  18   73.89    7.70
 -18  24   2   -0.90    3.50
  24  -2  18   -2.40    3.60
 -18  24  -2   -1.20    3.60
  24   2  18   -2.70    3.80
  24  -4  18  237.58   15.30
 -24   4  18  229.68   15.30
 -18  24   4  239.68   15.20
 -18  24  -4  250.97   15.50
 -18  24   6  316.87   20.30
 -24   6  18  363.16   20.80
  24  -6  18  342.07   20.60
 -18  24  -6  351.26   20.60
  24  -8  18   36.00    5.50
 -24   8  18   47.10    6.50
 -18  24   8   26.50    5.10
 -18  24  -8   36.10    5.90
 -18  24  10   95.29    8.90
  18  24 -10   90.09    7.50
  24 -10  18   81.99    8.90
 -24  10  18   89.19    9.60
 -18  24 -10   99.49    9.50
  24 -12  18   36.20    6.00
 -18  24  12   48.60    6.40
 -24  12  18   37.30    6.20
  24 -14  18   57.89    7.10
 -18  24  14   46.50    6.40
 -24  14  18   78.19    8.30
  24 -16  18  226.58   16.00
 -16  18  24  215.58   15.90
 -18  24  16  235.68   15.80
  16 -18  24  248.88   16.60
 -24  16  18  240.38   16.30
  24 -18  18   58.29    7.40
 -18  18  24   39.20    6.50
 -24  18  18   44.70    6.90
 -18  24  18   73.39    7.60
  20 -18  24   21.50    7.30
 -20  18  24    0.80    5.80
 -24  20  18    1.70    5.70
 -18  24  20    6.60    5.50
  24   0  20  475.55   27.30
 -20  24   0  476.75   27.10
 -20  24   2  267.07   17.00
  24  -2  20  261.97   17.10
  24   2  20  262.37   17.10
 -20  24  -2  301.47   17.30
 -20  24   4    6.70    4.10
 -24   4  20    7.10    4.50
  24  -4  20    8.20    4.30
 -20  24  -4    7.90    4.30
  24  -6  20    3.30    4.50
 -24   6  20    5.60    4.70
 -20  24   6    2.80    4.00
 -20  24  -6    1.50    4.40
  24  -8  20   54.99    6.80
 -20  24   8   57.49    6.70
 -24   8  20   82.29    8.20
 -20  24  -8   64.19    7.10
 -20  24  10  501.15   29.20
  24 -10  20  507.55   29.30
 -24  10  20  544.95   29.80
  20  24 -10  490.05   28.00
  24 -12  20  506.55   28.10
 -24  12  20  496.65   28.30
 -20  24  12  434.76   27.50
 -20  24  14   54.49    7.40
  24 -14  20   49.20    7.40
 -24  14  20   38.60    7.00
 -24  16  20    7.20    6.10
  24 -16  20   13.20    6.30
 -16  20  24   18.40    6.30
 -20  24  16   12.80    5.80
  24 -18  20   14.60    6.70
 -24  18  20   -3.00    5.50
 -18  20  24   -1.80    5.10
 -20  24  18    6.00    5.60
  24   0  22  843.42   45.80
 -22  24   0  830.02   45.60
  24  -2  22  520.55   29.60
 -22  24   2  513.55   29.50
  24   2  22  510.25   29.50
 -22  24  -2  534.25   29.60
  24  -4  22   98.19    9.30
 -22  24   4   74.99    8.90
 -24   4  22   89.99    9.80
 -22  24  -4   97.79    9.10
 -22  24   6    1.20    4.10
 -24   6  22   -0.20    5.00
  24  -6  22    1.10    4.50
 -22  24  -6    2.30    4.50
 -22  24   8   84.19    8.90
  22  24  -8   79.89    9.40
  24  -8  22   80.49    9.70
 -24   8  22   95.19   10.80
 -22  24  10  516.45   31.50
  24 -10  22  585.94   32.00
 -24  10  22  589.34   32.50
  22  24 -10  544.35   30.60
 -22  24  12  520.95   30.20
 -24  12  22  526.95   30.90
  24 -12  22  527.65   30.70
 -22  24  14   49.30    7.20
  24 -14  22   67.39    8.20
 -24  14  22  101.49   10.20
 -14  22  24   66.99    7.90
  24 -16  22   -2.50    6.10
 -24  16  22   -1.30    5.90
 -22  24  16    2.10    5.60
 -16  22  24    5.70    5.80
 -24  24   0  453.95   26.50
  24   0  24  462.35   26.80
  24  -2  24  187.58   13.90
 -24  24   2  194.18   13.70
 -24  24  -2  180.58   13.30
  24   2  24  199.48   13.90
 -24   4  24   -0.30    5.40
  24  -4  24    2.00    4.80
 -24  24   4   -6.20    4.30
 -24  24  -4   -1.40    4.70
 -24   6  24   13.60    6.10
  24  24  -6   22.20    6.40
 -24  24   6   25.70    5.80
  24  -6  24   14.90    5.40
 -24  24  -6   18.50    5.40
 -24   8  24   17.60    6.70
 -24  24   8   18.60    5.40
  24  -8  24   22.00    6.30
  24  24  -8   22.40    6.50
 -24  10  24  247.38   17.10
 -24  24  10  198.48   15.10
  24 -10  24  215.08   16.00
  24  24 -10  229.38   15.00
 -24  12  24  192.78   15.70
 -24  24  12  158.38   13.80
  24 -12  24  188.88   15.40
 -24  14  24   -1.20    7.10
 -14  24  24    0.60    5.60
  24 -14  24    2.10    6.90
  25   1  -1 1481.05   77.19
  25  -1   1 1453.45   77.09
  25  -1  -1 1443.26   77.09
  25   1   1 1438.16   76.99
  25  -3   1    2.10    3.10
  25   3  -1    3.10    3.10
  25   3   1    0.10    3.20
  -1  25  -3    1.70    3.00
  25  -3  -1   -0.40    3.10
  25   5  -1   56.19    6.60
  25  -5   1   74.09    6.90
   1  25  -5   64.99    6.40
  -1  25  -5   70.29    6.50
  25   5   1   66.09    6.90
  25  -5  -1   71.09    6.80
  25  -7   1   48.30    5.30
  25   7  -1   43.30    5.30
   1  25  -7   37.70    4.80
  25  -7  -1   51.49    5.50
  -1  25  -7   30.40    4.30
  25   7   1   36.20    5.00
  25   9  -1  298.07   19.20
   1  25  -9  292.17   18.90
  25  -9   1  347.67   19.30
  25  -9  -1  358.16   19.40
  25   9   1  317.57   19.40
  -1  25  -9  358.96   19.40
  25  11  -1  389.96   23.20
  25 -11   1  393.86   23.10
   1  25 -11  404.16   22.80
 -11  -1  25  431.96   22.50
  -1  25 -11  404.46   22.90
  25  11   1  398.16   23.30
 -13   1  25   48.70    5.70
   1  25 -13   48.30    5.80
 -25  13   1   59.19    6.20
  25  13  -1   36.30    5.30
  -1  25 -13   50.09    6.10
  25  13   1   46.20    5.90
 -15   1  25   28.20    4.20
 -25  15   1   23.80    4.50
  25  15  -1   28.80    5.30
 -15  -1  25   29.70    3.90
 -25  15  -1   24.70    4.50
  -1  25 -15   28.30    4.50
 -25  17   1   65.69    7.20
 -17   1  25   59.89    7.00
 -25  17  -1   54.79    6.30
 -17  -1  25   61.79    6.10
  19  -1  25   23.10    5.10
 -25  19   1   21.90    5.00
 -19   1  25   17.40    4.40
 -25  19  -1   23.30    5.00
 -25  21   1  296.67   17.70
 -21   1  25  274.57   17.50
  21  -1  25  284.57   17.80
 -25  21  -1  272.37   17.50
  21   1  25  268.27   17.70
  23  -1  25  254.57   17.20
 -25  23   1  256.57   17.10
 -25  23  -1  270.17   17.00
  23   1  25  284.27   17.50
  25   1  -3    0.60    3.00
  25  -1   3    2.80    3.30
  25   1   3    0.00    3.00
  25  -1  -3    2.90    3.20
  -3  25  -1    1.00    3.00
  25  -3   3  573.44   30.00
  25   3  -3  449.16   29.60
  25  -3  -3  572.44   29.90
  25   3   3  554.04   29.90
  -3  25  -3  539.35   29.70
  25   5  -3  744.63   46.30
  25  -5   3  945.21   46.70
  -3  25  -5  826.02   46.30
  25  -5  -3  904.91   46.50
  25   5   3  890.11   46.60
  25   7  -3  316.97   19.90
  25  -7   3  363.36   20.10
   3  25  -7  285.87   19.50
  25   7   3  369.96   20.20
  25  -7  -3  369.06   20.10
  -3  25  -7  362.46   20.00
  25   9  -3   30.70    4.70
  25  -9   3   25.10    4.30
   3  25  -9   25.70    4.00
  -3  25  -9   34.30    4.80
  25   9   3   29.70    4.70
 -25  11   3    0.00    3.10
  25 -11   3   -0.10    3.20
   3  25 -11    0.20    2.80
  25  11  -3   -1.10    3.40
  25  11   3   -1.30    3.70
  -3  25 -11   -0.10    3.10
 -25  13   3  127.99    9.80
   3  25 -13  135.39    9.20
 -13   3  25  132.99    9.60
  25  13  -3  136.59   10.20
  -3  25 -13  131.59    9.80
 -25  15   3  688.93   37.10
 -15   3  25  654.83   36.80
  15  -3  25  692.53   37.20
  25  15  -3  656.33   37.10
 -25  17   3  720.63   38.40
  25  17  -3  704.73   38.50
 -17   3  25  686.73   38.30
  17  -3  25  673.43   38.40
  25  19  -3   91.79    9.60
 -25  19   3   83.59    8.30
 -19   3  25   77.79    8.70
  19  -3  25   74.89    8.80
 -25  19  -3   86.59    8.70
 -21   3  25   41.20    6.60
  21  -3  25   62.09    7.50
  25  21  -3   47.60    7.20
 -25  21   3   50.29    6.40
 -25  21  -3   67.59    7.30
  23  -3  25   22.90    5.80
 -25  23   3   18.20    5.00
 -23   3  25   11.60    5.80
 -25  23  -3   11.70    4.90
  23   3  25   26.20    5.90
  -5  25   1   76.09    6.70
  25   1  -5   58.19    6.60
  25  -1   5   70.89    6.70
  25  -1  -5   64.79    6.60
  25   1   5   69.59    6.90
  -5  25  -1   70.59    6.50
  25  -3   5  974.20   48.20
  25   3  -5  787.32   47.70
  25   3   5  930.41   48.10
  -5  25  -3  885.21   47.90
  25  -3  -5  879.21   47.90
  25   5  -5 1356.06   80.69
  25   5   5 1596.04   80.99
  -5  25  -5 1634.54   80.99
  25  -7   5 1057.29   54.89
   5  25  -7 1003.80   54.49
  25   7  -5  993.10   54.79
  -5  25  -7 1017.10   54.89
  25   7   5 1040.00   54.89
  25   9  -5  263.07   15.70
  25  -9   5  276.97   15.80
 -25   9   5  262.17   15.80
   5  25  -9  268.27   15.30
   9  -5  25  214.18   15.50
  -5  25  -9  256.77   15.70
  25   9   5  252.07   15.80
  11  -5  25   60.79    7.10
 -25  11   5   62.59    6.90
  25 -11   5   63.99    6.90
   5  25 -11   54.49    6.00
  25  11  -5   58.69    6.70
  -5  25 -11   68.99    7.00
  25  13  -5  395.16   21.90
  13  -5  25  387.06   22.20
 -25  13   5  376.06   21.90
 -13   5  25  376.66   21.80
  25 -13   5  384.36   22.00
   5  25 -13  352.86   21.00
  -5  25 -13  371.16   21.80
 -15   5  25 1342.87   71.29
 -25  15   5 1277.07   71.29
  25  15  -5 1347.27   71.29
  15  -5  25 1386.76   71.49
  25  17  -5 1269.57   68.59
  17  -5  25 1236.68   68.69
 -25  17   5 1238.28   68.49
 -17   5  25 1391.66   68.79
  19  -5  25  275.27   17.50
  25  19  -5  254.97   17.30
 -25  19   5  279.27   17.20
 -19   5  25  280.67   17.60
 -21   5  25   17.60    5.70
  25  21  -5    9.40    5.40
  21  -5  25   12.70    4.80
 -25  21   5    9.20    4.50
 -23   5  25   30.40    6.90
  23  -5  25   35.10    6.30
 -25  23   5   21.20    5.20
  25  23  -5   27.10    6.70
 -25  23  -5   36.20    6.20
  -7  25   1   46.90    5.10
  25  -1   7   37.50    4.90
  25   1  -7   26.30    4.30
  -1  -7  25   42.60    4.60
  -7  25  -1   50.09    5.20
  25   1   7   42.00    5.10
  25  -1  -7   26.40    4.30
  -7  25   3  361.76   20.10
  25  -3   7  378.56   20.40
   3  -7  25  340.27   19.90
  25   3  -7  289.17   19.90
  25   3   7  363.06   20.30
  -7  25  -3  356.26   20.20
  -3  -7  25  355.36   19.20
  25  -5   7 1048.20   53.59
   5  -7  25 1093.29   53.49
  25   5  -7  933.01   53.29
  -7  25  -5  888.31   53.39
  25   5   7 1024.30   53.59
 -25   7   7  636.54   34.00
  25  -7   7  630.24   34.10
   7  -7  25  663.83   34.00
  25   7  -7  565.94   33.70
  25   7   7  604.74   34.00
  -7  25  -7  597.54   33.90
 -25   9   7   19.60    4.40
   9  -7  25   17.10    4.30
   7  25  -9   27.50    3.90
  25   9  -7   18.30    4.10
  25  -9   7   21.40    4.10
  -7  25  -9   13.90    3.90
  25  11  -7   16.90    4.00
  25 -11   7   25.30    4.60
 -25  11   7   22.80    4.70
  11  -7  25   21.40    4.80
   7  25 -11   15.20    3.30
  -7  25 -11   11.10    3.80
 -25  13   7   57.09    7.00
  25  13  -7   58.89    6.80
  25 -13   7   58.99    6.80
   7  25 -13   58.19    5.40
  13  -7  25   53.79    6.20
  -7  25 -13   50.49    5.90
 -25  15   7  656.53   35.90
  15  -7  25  624.14   36.00
  25  15  -7  648.04   35.60
 -15   7  25  659.63   35.90
  25 -15   7  648.24   35.80
  25  17  -7  593.94   33.70
 -25  17   7  564.74   33.80
  17  -7  25  639.74   34.30
 -17   7  25  640.24   34.20
  19  -7  25   55.09    7.10
 -25  19   7   37.00    5.90
  25  19  -7   54.89    6.60
 -19   7  25   58.39    7.30
 -25  21   7    0.30    4.50
 -21   7  25   -4.60    5.20
  25  21  -7    0.20    4.90
  21  -7  25   -0.70    4.60
  25  23  -7    2.30    5.80
 -23   7  25    6.50    6.30
  23  -7  25    7.10    5.30
 -25  23   7    9.10    5.20
  25  -1   9  318.07   19.70
  -9  25   1  355.56   19.90
  25   1   9  338.07   19.80
  -9  25  -1  313.77   19.70
  -1  -9  25  375.46   19.10
  25  -3   9   31.20    4.70
  25   3  -9   28.80    4.50
  -9  25   3   36.00    4.80
  25   3   9   25.50    4.40
  -9  25  -3   22.40    4.10
  -9  25   5  282.07   16.60
  25  -5   9  279.77   16.70
  25   5  -9  264.87   16.30
   5  -9  25  267.27   16.30
  -9  25  -5  281.07   16.70
  25   5   9  276.57   16.80
 -25   7   9   16.50    4.00
  25  -7   9   16.90    4.40
  25   7  -9   11.40    3.50
  -9  25   7   25.00    4.30
   7  -9  25   23.10    4.30
  -9  25  -7   18.90    4.20
  25   7   9   17.70    4.50
   9  -9  25  254.27   16.40
  25  -9   9  264.37   16.30
 -25   9   9  269.07   16.50
   9  25  -9  295.47   15.80
  25   9  -9  274.47   16.00
  -9  25  -9  242.48   16.30
  25  11  -9  416.86   23.30
  25 -11   9  429.36   23.80
   9  25 -11  410.46   22.80
 -25  11   9  418.66   23.80
  11  -9  25  404.56   23.80
  -9  25 -11  386.66   23.70
  25 -13   9   57.09    6.30
 -25  13   9   69.69    7.00
   9  25 -13   59.29    5.00
  13  -9  25   50.89    6.40
  25  13  -9   61.89    6.70
  -9  25 -13   48.30    6.10
 -25  15   9   45.40    6.10
  15  -9  25   51.59    6.70
 -15   9  25   52.09    6.20
  25  15  -9   54.69    6.00
  25 -15   9   49.50    6.10
  17  -9  25   31.70    5.80
 -25  17   9   53.49    6.50
 -17   9  25   33.50    5.60
  25  17  -9   42.40    5.60
  25  19  -9   41.60    6.00
 -25  19   9   56.69    6.90
 -19   9  25   50.49    7.00
  19  -9  25   66.79    7.60
 -21   9  25  140.19   12.60
 -25  21   9  125.39   11.00
  21  -9  25  142.29   11.90
  25  21  -9  137.39   11.40
  25  23  -9   93.09   10.80
  23  -9  25   93.89   11.00
 -23   9  25   96.79   12.00
 -25  23   9   89.09    9.90
  25  -1  11  416.26   23.70
 -11  25   1  406.86   23.50
  25   1  11  384.66   23.60
 -11  25  -1  448.96   23.80
 -11  25   3   -0.40    3.00
  25  -3  11   -0.50    3.00
 -11  25  -3    1.90    3.30
  25   3  11   -2.40    3.10
 -25   5  11   55.69    6.80
  25  -5  11   59.79    6.90
 -11  25   5   56.19    6.40
 -11  25  -5   64.79    6.90
  25   5  11   59.79    7.10
   7 -11  25   18.70    4.20
  25  -7  11   11.90    3.90
 -11  25   7   19.90    4.20
 -25   7  11   23.90    4.70
 -11  25  -7    9.60    3.90
 -25   9  11  410.36   23.80
 -11  25   9  412.96   23.60
   9 -11  25  389.66   23.60
  25  -9  11  414.76   23.90
 -11  25  -9  430.06   23.90
  11 -11  25  570.14   31.20
  25 -11  11  551.44   31.00
 -25  11  11  580.24   31.20
  11  25 -11  546.25   29.90
 -11  25  11  537.35   30.80
  25  11 -11  536.45   30.30
 -11  25 -11  554.94   31.10
  25  13 -11  114.79    9.00
  25 -13  11  118.99    9.90
  13 -11  25  118.99   10.30
 -25  13  11  124.89   10.10
 -11  25 -13  136.69   10.40
  25  15 -11    3.10    3.40
  15 -11  25    4.10    4.20
 -15  11  25    4.40    4.10
 -25  15  11    4.80    4.10
  25 -15  11    3.00    4.30
 -25  17  11   21.50    5.40
 -17  11  25   18.90    5.00
  25  17 -11   18.50    4.10
  17 -11  25   22.50    5.80
  25 -17  11   15.40    4.90
 -25  19  11   95.09    9.70
  19 -11  25   95.19   10.40
  25  19 -11   93.79    8.30
 -19  11  25   98.99   10.40
 -21  11  25  293.47   19.70
 -25  21  11  280.57   18.40
  21 -11  25  299.77   19.30
  25  21 -11  284.87   16.90
 -25  23  11  211.88   16.00
  23 -11  25  248.38   17.30
 -13  25   1   51.89    6.30
  25  -1  13   46.00    5.60
  25   1  13   51.89    5.80
 -13  25  -1   50.09    5.90
 -13  25   3  141.99   10.10
  25  -3  13  137.99   10.10
  25   3  13  128.69   10.30
 -13  25  -3  143.39   10.10
 -25   5  13  344.47   21.30
  25  -5  13  374.86   21.50
 -13  25   5  382.96   21.40
 -13  25  -5  369.16   21.50
  25   5  13  361.76   21.50
  25  -7  13   58.69    6.90
 -25   7  13   64.89    7.40
 -13  25   7   61.09    6.90
 -13  25  -7   58.29    6.60
 -13  25   9   49.40    5.80
 -25   9  13   61.29    7.40
  25  -9  13   62.29    6.70
   9 -13  25   42.30    5.70
 -13  25  -9   62.69    7.50
  25 -11  13  121.59    9.80
 -13  25  11  117.99    9.60
 -25  11  13   92.59    9.60
  11 -13  25  113.79    9.90
  13  25 -11  124.19    8.00
 -13  25 -11  112.49    9.90
  13 -13  25   17.30    4.70
 -13  25  13   16.30    4.50
 -25  13  13   19.10    5.20
  25 -13  13    9.40    4.30
  25 -15  13  109.69    9.80
 -15  13  25  109.89    9.90
  15 -13  25   89.09   10.10
 -25  15  13  106.39    9.70
 -13  25  15  103.19    9.50
 -25  17  13  148.19   12.00
 -13  25  17  158.38   11.90
 -17  13  25  153.78   12.30
  25 -17  13  147.79   11.90
  17 -13  25  153.68   12.90
 -13  25  19   -0.90    4.60
  19 -13  25   -3.00    5.70
 -25  19  13    0.90    4.60
 -19  13  25   -1.10    5.30
  21 -13  25   48.20    7.70
 -21  13  25   52.99    7.70
 -25  21  13   44.90    6.90
 -23  13  25   -2.90    6.70
  23 -13  25   48.50    8.30
 -25  23  13   23.60    6.00
  25  -1  15   21.70    4.50
 -15  25   1   25.70    4.60
 -15  25  -1   22.60    4.50
  25   1  15   26.80    4.80
  25  -3  15  622.64   35.60
 -15  25   3  687.33   35.90
 -15  25  -3  674.83   35.80
  25   3  15  606.84   35.60
 -15  25   5 1361.36   71.19
  25  -5  15 1299.77   71.19
 -25   5  15 1344.17   71.29
 -15  25  -5 1385.96   71.39
  25   5  15 1295.07   71.19
 -25   7  15  612.54   35.20
 -15  25   7  629.74   34.90
  25  -7  15  651.63   35.20
 -15  25  -7  636.54   35.20
 -15  25   9   55.89    6.30
  25  -9  15   50.09    6.30
 -25   9  15   41.00    5.80
 -15  25  -9   68.79    7.20
  15  25 -11    6.20    2.80
  25 -11  15    5.30    4.30
 -15  25  11    3.50    3.80
 -25  11  15    4.00    4.30
 -15  25 -11    6.70    4.50
 -25  13  15  111.89    9.90
 -15  25  13   96.69    9.30
  13 -15  25  113.39   12.80
  25 -13  15   97.29    9.80
  15 -15  25  413.16   24.50
 -15  15  25  418.66   24.20
 -25  15  15  375.76   24.00
 -15  25  15  396.86   23.80
  25 -15  15  424.16   24.10
 -17  15  25  578.44   31.70
 -15  25  17  542.95   31.30
  17 -15  25  585.64   32.10
 -25  17  15  530.95   31.50
  25 -17  15  516.15   31.20
 -19  15  25  215.88   15.60
 -25  19  15  193.28   14.90
 -15  25  19  202.58   15.00
  19 -15  25  216.78   16.10
  21 -15  25   46.00    8.20
 -25  21  15   31.00    6.70
 -21  15  25    1.30    6.10
 -15  25  21   16.30    5.80
 -17  25   1   59.09    7.40
  25  -1  17   71.59    7.30
 -17  25  -1   67.99    7.30
  25   1  17   58.39    7.30
  25  -3  17  631.24   36.40
 -17  25   3  681.53   36.50
  25   3  17  668.03   36.50
 -17  25  -3  656.03   36.40
  25  -5  17 1391.06   74.89
 -25   5  17 1381.16   74.99
 -17  25  -5 1445.46   74.99
 -17  25   7  672.43   35.30
  25  -7  17  591.44   35.10
 -25   7  17  645.74   35.50
 -17  25  -7  623.14   35.30
 -17  25   9   37.90    5.50
  25  -9  17   53.29    6.30
 -25   9  17   33.20    5.90
 -17  25  -9   34.60    5.70
  17  25 -11   20.10    3.30
  25 -11  17   15.60    5.00
 -25  11  17   16.60    5.40
 -17  25  11   23.20    5.10
  17  25 -11   20.60    3.20
 -17  25 -11   14.80    5.00
 -17  25  13  146.69   11.70
  25 -13  17  155.28   12.30
 -25  13  17  160.38   12.60
  25 -15  17  555.64   31.40
 -25  15  17  533.55   31.50
 -15  17  25  556.14   31.50
 -17  25  15  543.85   31.20
 -17  25  17  577.94   32.50
 -17  17  25  586.54   32.80
 -25  17  17  571.94   32.80
  25 -17  17  560.54   32.60
  17 -17  25  547.05   32.90
 -17  25  19  204.88   15.20
 -25  19  17  193.78   15.30
  19 -17  25  212.38   16.40
  25  -1  19   19.20    5.10
 -19  25   1   11.00    4.30
 -19  25  -1   15.30    4.60
  25   1  19   13.20    4.40
 -19  25   3   80.49    7.90
  25  -3  19   74.89    8.30
  25   3  19   77.49    8.00
 -19  25  -3   61.49    7.90
  25  -5  19  280.87   17.10
 -19  25   5  258.77   16.80
 -25   5  19  284.17   17.40
 -19  25  -5  252.27   17.00
 -25   7  19   28.20    5.50
 -19  25  -7   34.80    5.60
 -19  25   9   23.30    5.00
 -25   9  19   43.90    6.80
  25  -9  19   37.60    5.80
 -19  25  -9   39.80    6.00
  25 -11  19  108.79   10.50
 -19  25  11   93.99    9.50
 -25  11  19   93.59   10.70
  25 -13  19   -1.00    4.80
 -25  13  19   -1.20    5.20
 -19  25  13   -2.10    4.40
  25 -15  19  211.78   15.00
 -25  15  19  222.88   15.60
 -19  25  15  174.58   14.10
 -19  19  25    2.30    6.10
  19 -19  25    3.30    7.00
 -25  19  19    0.70    6.10
  25 -19  19   -0.60    6.50
  25  -1  21  273.07   17.70
 -21  25   1  278.57   17.60
 -21  25  -1  291.57   17.80
  25   1  21  288.57   17.80
 -21  25   3   57.29    6.80
  25  -3  21   46.40    6.40
  25   3  21   43.20    6.20
 -21  25  -3   45.70    6.10
 -21  25   5   13.80    4.80
 -25   5  21   10.40    5.20
  25  -5  21   14.70    5.10
 -21  25  -5   18.90    5.20
 -21  25   7    0.60    4.50
  25  -7  21   -0.80    4.60
 -25   7  21   -0.70    5.10
 -21  25  -7   -1.10    4.60
 -21  25   9  124.19   10.60
  21  25  -9  128.09   10.80
  25  -9  21  128.39   11.10
 -25   9  21  135.09   12.30
 -21  25  11  273.37   17.20
 -25  11  21  282.37   18.40
  25 -11  21  238.38   17.60
  25 -13  21   46.60    7.40
 -25  13  21   31.10    6.80
 -21  25  13   63.19    7.70
 -15  21  25    1.80    5.20
 -25  15  21   -2.50    5.80
 -21  25  15   32.30    6.20
  25 -15  21   20.30    6.30
 -23  25   1  288.97   17.40
  25  -1  23  267.57   17.40
 -23  25  -1  252.77   17.20
  25   1  23  269.17   17.40
  25  -3  23   31.60    6.20
 -23  25   3   12.20    4.80
 -23  25  -3   35.00    6.10
  25   3  23   15.60    5.10
 -25   5  23   47.00    7.30
  25  -5  23   33.70    6.20
 -23  25   5   17.10    4.90
 -23  25  -5   21.90    5.40
 -25   7  23    6.50    5.90
  23  25  -7    4.90    6.00
 -23  25   7    4.40    4.80
  25  -7  23    9.70    5.60
 -23  25  -7    2.70    5.10
  25  -9  23   96.49   10.80
 -25   9  23   99.79   12.10
  23  25  -9   89.49   10.40
 -23  25   9   88.29    9.60
  25 -11  23  178.98   14.90
 -23  25  11  200.98   14.60
 -25  11  23  232.78   16.50
  25 -13  23   43.60    8.00
 -23  25  13   52.39    9.50
  25  -1  25   13.90    6.10
 -25  25   1   19.60    5.80
 -25  25  -1    5.90    4.90
  25   1  25   16.60    5.90
 -25  25   3   96.09   10.00
 -25  25  -3   85.69    9.90
  25   3  25   98.69   10.50
 -25   5  25  317.07   21.60
  25  25  -5  345.67   21.90
 -25  25   5  315.77   20.10
  25  -5  25  342.17   20.70
  25   5  25  308.47   20.30
 -25  25  -5  294.97   20.10
 -25   7  25  116.29   13.60
 -25  25   7   99.69   10.70
  25  -7  25  123.39   12.30
  25  25  -7  115.69   13.30
 -25   9  25    1.20    7.20
  25  -9  25   -1.30    6.10
  25  25  -9   -6.40    6.70
  26   0   0 1526.35   80.99
  26   2   0  109.59    8.80
  26  -2   0  114.79    8.90
   0  26  -4  114.09    8.80
  26  -4   0  123.99    9.20
  26   4   0  117.69    9.20
  26  -6   0   58.39    6.20
  26   6   0   51.49    5.90
   0  26  -6   48.30    6.10
  26   8   0  131.29    9.90
   0  26  -8  123.39    9.50
  26  -8   0  136.29    9.90
  26 -10   0  264.87   16.40
  26  10   0  262.37   16.70
   0  26 -10  281.67   16.40
   0  26 -12   36.00    4.90
 -12   0  26   48.40    5.50
  26  12   0   43.60    5.70
   0  26 -14   32.20    4.70
 -14   0  26   30.80    4.40
  26  14   0   30.20    5.50
 -26  16   0  136.49   10.50
 -16   0  26  143.19   10.00
  26  16   0  138.39   11.40
 -18   0  26   69.29    7.30
 -26  18   0   66.69    7.60
 -20   0  26   18.90    4.80
 -26  20   0   14.60    4.50
  20   0  26   15.20    4.90
 -26  22   0  220.38   14.70
  22   0  26  206.78   15.00
  24   0  26   56.89    7.50
 -26  24   0   34.00    6.20
  26   0  -2  117.09    9.20
  26   0   2  117.89    9.00
  26  -2   2  128.49   10.90
  -2  26  -2  171.78   11.00
  26   2   2  168.98   11.20
  26  -2  -2  187.88   11.40
  26   4  -2  773.62   46.70
  26  -4   2  905.61   46.90
  26   4   2  900.31   47.00
  -2  26  -4  882.61   46.70
  26  -4  -2  871.11   46.80
   2  26  -6  581.04   33.70
  26   6  -2  576.44   33.90
  26  -6   2  668.43   34.10
  26  -6  -2  654.03   34.10
  -2  26  -6  613.74   33.80
  26   6   2  603.64   34.00
  26  -8   2   77.39    7.10
   2  26  -8   65.99    6.70
  26   8  -2   64.59    7.20
  26   8   2   71.19    7.40
  26  -8  -2   61.29    6.80
  -2  26  -8   55.19    6.80
   2  26 -10   -0.20    3.10
  26  10  -2   -0.70    3.60
  26 -10   2    2.50    3.40
  26  10   2    1.00    3.60
  -2  26 -10    0.10    3.20
  26  12  -2   54.09    6.10
   2  26 -12   38.10    5.00
 -26  12   2   57.39    6.20
 -12   2  26   51.89    6.20
 -12  -2  26   46.50    5.10
  -2  26 -12   43.10    5.60
  26  12   2   49.99    6.20
 -14   2  26  382.06   22.20
  26  14  -2  390.56   22.80
 -26  14   2  376.86   22.50
   2  26 -14  416.86   22.10
  26  14   2  382.96   22.90
  -2  26 -14  355.66   22.20
 -14  -2  26  400.66   21.30
  26  16  -2  680.63   37.70
 -26  16   2  677.33   37.40
  16  -2  26  675.53   37.60
 -16   2  26  726.33   37.40
 -16  -2  26  638.24   36.20
 -26  18   2  322.77   19.40
 -18   2  26  323.37   19.30
  18  -2  26  279.77   19.30
  26  18  -2  338.37   20.10
 -26  18  -2  331.77   19.30
 -26  20   2    5.00    4.40
  20  -2  26    2.30    4.50
 -20   2  26    3.50    4.80
  26  20  -2   -0.10    5.20
 -26  20  -2    0.10    4.30
 -22   2  26   60.39    7.60
 -26  22   2   50.89    6.60
  22  -2  26   76.39    8.20
 -26  22  -2   40.30    6.40
  22   2  26   79.69    8.30
 -26  24   2    5.10    5.00
  24  -2  26    1.40    5.30
 -26  24  -2    5.20    5.20
  24   2  26    4.60    5.40
  -4  26   0  119.99    8.60
  26   0  -4   96.49    8.60
  26   0   4  114.59    8.80
  26   2  -4  786.72   46.70
  26  -2   4  892.81   46.90
  26   2   4  910.71   47.00
  26  -2  -4  855.71   46.80
  -4  26  -2  891.41   46.80
  26   4  -4 1479.25   84.69
  26  -4  -4 1645.74   84.69
  -4  26  -4 1575.64   84.59
  26   4   4 1703.23   84.89
   4  26  -6 1468.25   80.09
  26   6  -4 1416.26   80.29
  26  -6   4 1600.14   80.39
  26   6   4 1534.75   80.39
  -4  26  -6 1560.24   80.39
  26   8  -4  561.84   32.30
   4  26  -8  494.85   31.90
  26  -8   4  632.34   32.50
  26   8   4  591.04   32.50
  -4  26  -8  646.24   32.50
   4  26 -10  243.68   15.00
  26  10  -4  235.48   15.30
 -26  10   4  253.27   15.40
  26 -10   4  252.97   15.30
  26  10   4  241.58   15.60
  -4  26 -10  248.98   15.30
 -26  12   4  442.96   24.60
  26 -12   4  423.16   24.40
  26  12  -4  412.66   24.60
  12  -4  26  436.06   24.80
   4  26 -12  405.16   23.90
  26  12   4  420.46   24.80
  -4  26 -12  466.95   24.70
 -14   4  26 1281.17   68.49
  26  14  -4 1121.09   68.39
 -26  14   4 1287.07   68.59
  14  -4  26 1271.17   68.69
   4  26 -14 1487.55   68.09
  -4  26 -14 1259.47   68.49
 -26  16   4 1932.31   98.69
 -16   4  26 2004.70   98.79
  26  16  -4 1785.52   98.59
  16  -4  26 1742.33   98.69
  18  -4  26  946.61   51.29
  26  18  -4  916.11   51.19
 -26  18   4  956.40   51.09
 -18   4  26  948.71   51.19
  20  -4  26  136.39   11.60
 -26  20   4  133.79   10.90
 -20   4  26  140.59   11.80
  26  20  -4  139.09   12.00
 -22   4  26   17.30    6.10
  22  -4  26   15.90    5.80
 -26  22   4   19.30    5.20
  26  22  -4    9.60    6.20
 -26  22  -4   15.10    5.00
 -26  24   4  199.98   14.60
  24  -4  26  194.58   15.40
 -24   4  26  199.18   16.40
  26  24  -4  218.98   17.10
  24   4  26  199.88   14.80
 -26  24  -4  220.78   15.10
  26   0   6   42.70    5.30
  26   0  -6   42.50    5.40
  -6  26   0   49.50    6.00
  26   2  -6  572.34   34.10
  -6  26   2  657.93   34.30
  26  -2   6  631.54   34.30
  26  -2  -6  586.44   34.10
  -6  26  -2  634.94   34.20
  26   2   6  649.43   34.40
  26  -4   6 1637.14   83.29
   4  -6  26 1512.85   82.89
  26   4  -6 1509.65   83.09
  26   4   6 1625.84   83.29
  26   6  -6 1634.24   88.19
  26  -6   6 1661.73   88.29
   6  -6  26 1711.03   88.19
  26   6   6 1666.13   88.29
   6  26  -8  680.33   34.40
  26   8  -6  526.15   34.40
  26  -8   6  656.33   34.70
   8  -6  26  611.04   34.60
  26   8   6  664.53   34.90
  -6  26  -8  630.64   34.60
   6  26 -10  186.88   11.80
  10  -6  26  170.18   12.40
  26  10  -6  173.48   12.30
 -26  10   6  192.98   12.50
  26 -10   6  194.48   12.30
  26  10   6  175.88   12.60
  -6  26 -10  179.48   12.40
  26 -12   6  272.57   16.60
   6  26 -12  269.47   15.70
  26  12  -6  274.67   16.60
 -26  12   6  275.17   16.60
  12  -6  26  225.18   16.60
  -6  26 -12  290.87   16.70
 -26  14   6  894.71   54.89
  26  14  -6 1072.29   55.09
 -14   6  26 1092.59   55.19
  14  -6  26 1049.40   55.39
  26 -14   6 1056.69   55.09
   6  26 -14  994.50   54.09
  -6  26 -14 1003.40   55.09
 -26  16   6 1630.84   87.99
  16  -6  26 1681.03   88.29
  26  16  -6 1668.03   87.99
 -16   6  26 1660.13   88.09
 -26  18   6  634.04   36.20
 -18   6  26  672.73   36.60
  26  18  -6  646.54   36.30
  18  -6  26  654.13   36.50
  20  -6  26  118.09   11.50
  26  20  -6  143.79   11.70
 -26  20   6  127.49   11.00
 -20   6  26  121.79   11.80
  26  22  -6   34.90    6.90
 -22   6  26   40.00    7.40
 -26  22   6   33.10    5.80
  22  -6  26   51.69    6.80
 -24   6  26  235.48   17.60
 -26  24   6  203.08   15.40
  24  -6  26  244.28   16.70
  26  24  -6  224.78   17.60
  26   0   8  138.49    9.90
  -8  26   0  130.29    9.70
  26   2  -8   65.19    7.20
  26  -2   8   73.39    7.20
  -8  26   2   75.59    7.10
  26   2   8   72.29    7.20
  -8  26  -2   76.29    7.20
  26   4  -8  586.24   33.90
  26  -4   8  585.54   34.00
  -8  26   4  639.34   34.10
  -8  26  -4  664.63   34.40
  26   4   8  619.04   34.20
  26  -6   8  622.24   35.40
   6  -8  26  637.34   35.30
  26   6  -8  610.44   35.10
  -8  26   6  660.83   35.30
  -8  26  -6  657.83   35.40
  26   6   8  664.13   35.50
   8  -8  26   72.09    7.50
   8  26  -8   67.79    6.80
  26   8  -8   62.69    7.00
  26  -8   8   68.19    7.40
 -26   8   8   77.09    7.50
  -8  26  -8   70.79    7.50
  26   8   8   62.69    7.80
  26  10  -8   15.90    4.00
  10  -8  26   10.70    4.00
  26 -10   8   11.00    3.90
 -26  10   8   12.60    4.10
   8  26 -10   15.50    3.70
  -8  26 -10   15.10    4.60
  26  12  -8    0.00    3.50
  12  -8  26   -2.80    3.80
   8  26 -12   -0.40    2.80
  26 -12   8    7.20    3.80
 -26  12   8    1.20    3.60
  -8  26 -12   -1.30    3.90
  14  -8  26  218.78   14.30
 -14   8  26  199.58   13.90
  26  14  -8  173.38   13.50
  26 -14   8  207.78   13.80
 -26  14   8  224.78   14.00
  -8  26 -14  218.98   14.20
 -26  16   8  416.66   25.40
 -16   8  26  445.16   25.70
  26  16  -8  456.65   25.40
  16  -8  26  444.86   25.90
  26  18  -8   61.09    6.80
 -18   8  26   45.50    6.60
 -26  18   8   70.99    8.30
  18  -8  26   59.59    7.00
  20  -8  26   -2.00    5.10
  26  20  -8   -0.20    4.90
 -20   8  26    2.80    5.60
 -26  20   8    0.50    4.50
 -22   8  26    6.80    6.40
  22  -8  26    4.70    6.10
 -26  22   8   -0.40    4.90
  26  22  -8    6.20    5.90
  24  -8  26   20.50    6.90
  26  24  -8   11.00    7.00
 -24   8  26   22.90    8.20
 -10  26   0  286.77   16.60
  26   0  10  257.37   16.50
  26  -2  10    2.20    3.40
 -10  26   2    0.90    3.20
 -10  26  -2    1.40    3.20
  26   2  10    4.80    3.70
 -10  26   4  237.68   15.20
  26  -4  10  240.48   15.30
 -10  26  -4  260.87   15.50
  26   4  10  245.28   15.40
  26   6 -10  177.38   12.00
  26  -6  10  185.58   12.40
 -10  26   6  187.88   12.20
 -10  26  -6  181.48   12.30
  26   6  10  177.38   12.40
   8 -10  26   14.10    4.10
 -26   8  10   11.90    4.00
  26   8 -10   10.70    3.80
  26  -8  10   14.70    4.30
 -10  26   8   19.10    4.40
  26   8  10   21.30    4.90
 -10  26  -8   17.60    4.60
 -26  10  10  178.18   12.30
  10  26 -10  182.18   11.30
  26 -10  10  164.38   12.00
  10 -10  26  160.38   12.10
  26  10 -10  178.28   11.70
 -10  26 -10  174.28   12.30
  26  12 -10   40.10    5.10
  26 -12  10   48.50    6.00
  10  26 -12   39.30    4.20
  12 -10  26   23.80    5.20
 -26  12  10   39.50    5.60
 -10  26 -12   33.90    5.30
  26 -14  10   48.50    6.10
 -14  10  26   64.19    7.20
 -26  14  10   61.39    7.60
  26  14 -10   49.20    5.80
  14 -10  26   68.19    7.50
 -16  10  26  158.18   12.30
  26  16 -10  161.88   11.50
  26 -16  10  164.48   12.00
 -26  16  10  148.69   11.80
  16 -10  26  173.38   12.90
  18 -10  26    4.50    4.90
  26  18 -10    8.50    4.40
 -18  10  26    5.30    4.90
 -26  18  10    8.90    4.90
  26  20 -10   37.50    5.90
 -20  10  26   38.20    6.50
  20 -10  26   33.30    6.20
 -26  20  10   24.60    5.60
  22 -10  26  166.08   13.60
 -26  22  10  140.09   12.40
  26  22 -10  140.69   12.30
 -22  10  26  162.68   14.20
 -12  26   0   33.20    5.00
  26   0  12   49.10    5.70
  26  -2  12   46.70    5.70
 -12  26   2   49.50    5.70
 -12  26  -2   57.89    6.40
  26   2  12   50.59    5.90
 -12  26   4  438.26   24.70
  26  -4  12  443.56   24.80
  26   4  12  411.36   24.80
 -12  26  -4  439.66   24.80
  26  -6  12  261.77   16.60
 -26   6  12  279.07   16.80
 -12  26   6  260.17   16.30
  26   6  12  274.27   16.80
 -12  26  -6  268.57   16.70
 -12  26   8   -1.20    3.50
  26  -8  12    1.40    3.90
 -26   8  12   -1.40    3.50
 -12  26  -8   -0.30    3.80
 -12  26  10   47.30    5.90
  10 -12  26   40.20    5.50
 -26  10  12   51.39    6.40
  26 -10  12   41.40    5.70
  12  26 -10   37.10    4.70
 -12  26 -10   52.59    6.50
  12 -12  26    9.70    4.70
  26 -12  12    5.10    4.40
 -26  12  12    3.50    4.10
  12  26 -12    3.90    2.70
 -12  26  12    2.70    4.10
 -12  26 -12    7.60    4.50
 -12  26  14   69.49    8.00
  26 -14  12   64.59    7.90
  14 -12  26   73.19    8.90
 -26  14  12   72.89    8.30
 -26  16  12  238.68   16.00
  16 -12  26  246.38   16.50
  26 -16  12  241.18   15.90
 -16  12  26  232.78   16.10
 -18  12  26   34.70    6.10
 -26  18  12   41.00    6.10
  18 -12  26   62.49    7.40
  20 -12  26   15.30    6.10
 -26  20  12    6.80    5.20
 -20  12  26   12.20    6.20
  22 -12  26  140.79   12.90
 -22  12  26  105.19   13.30
 -26  22  12   97.79   11.10
  26   0  14   27.10    4.80
 -14  26   0   35.60    5.30
  26  -2  14  374.26   22.00
 -14  26   2  387.16   22.10
  26   2  14  373.06   22.10
 -14  26  -2  376.66   22.00
 -14  26   4 1332.87   68.49
  26  -4  14 1205.28   68.39
 -14  26  -4 1318.67   68.59
  26   4  14 1277.77   68.49
 -26   6  14 1089.99   55.19
  26  -6  14 1021.40   54.89
 -14  26   6 1045.40   54.89
  26   6  14 1009.90   54.89
 -14  26  -6  930.81   54.79
  26  -8  14  209.58   13.80
 -14  26   8  209.08   13.70
 -26   8  14  195.68   14.00
 -14  26  -8  212.88   14.10
  14  26 -10   57.99    6.30
 -26  10  14   39.60    6.00
  26 -10  14   72.09    7.30
 -14  26  10   58.19    6.40
 -14  26 -10   40.80    5.90
 -26  12  14   75.59    8.90
 -14  26  12   77.69    8.50
  26 -12  14   73.89    8.30
 -14  26 -12   79.89    8.30
 -26  14  14  265.77   18.00
  14 -14  26  279.57   18.40
 -14  26  14  288.07   17.70
  26 -14  14  286.47   18.00
 -26  16  14  603.54   33.80
 -16  14  26  595.14   33.80
  26 -16  14  577.94   33.40
  16 -14  26  598.64   34.10
 -14  26  16  593.94   33.50
 -26  18  14  415.26   26.70
  18 -14  26  487.45   27.60
  26 -18  14  469.35   26.90
 -14  26  18  441.46   26.60
  20 -14  26  130.59   11.80
 -26  20  14   96.89   11.00
 -20  14  26  109.09   12.20
 -14  26  20  101.29   11.20
  26   0  16  138.89   11.00
 -16  26   0  147.49   10.60
  26  -2  16  752.02   38.20
 -16  26   2  709.73   38.10
 -16  26  -2  648.94   37.90
  26   2  16  652.23   37.90
  26  -4  16 1778.52   95.19
  26   4  16 1851.91   95.29
 -16  26  -4 1770.22   95.19
  26  -6  16 1635.74   85.19
 -26   6  16 1697.23   85.49
 -16  26   6 1665.23   85.19
  26   6  16 1583.04   85.19
 -16  26  -6 1447.26   85.09
 -16  26   8  440.26   25.80
  26  -8  16  435.36   25.90
 -26   8  16  478.15   26.40
 -16  26  -8  448.96   26.20
 -16  26  10  153.28   11.70
 -26  10  16  170.18   12.70
  26 -10  16  158.68   12.40
 -16  26 -10  167.78   12.60
 -26  12  16  255.57   16.40
  26 -12  16  232.68   15.90
 -16  26  12  232.48   15.40
  26 -14  16  591.04   34.40
 -26  14  16  629.24   34.80
 -16  26  14  611.54   34.30
  26 -16  16  933.61   52.49
 -26  16  16  966.70   52.79
 -16  26  16  962.40   52.49
 -16  16  26  990.10   52.79
 -26  18  16  761.42   41.80
  26 -18  16  749.03   41.70
 -16  26  18  699.93   41.30
  18 -16  26  774.52   42.20
 -18  16  26  738.83   41.80
  26   0  18   70.29    8.20
 -18  26   0   73.49    8.20
  26  -2  18  345.17   19.10
 -18  26   2  300.17   18.70
  26   2  18  308.97   18.70
 -18  26  -2  282.17   18.60
  26  -4  18  943.81   49.90
 -18  26   4  934.41   49.80
  26   4  18  876.01   49.80
  26  -6  18  627.94   36.20
 -18  26   6  690.03   36.40
 -26   6  18  658.33   36.60
 -18  26  -6  629.94   36.30
  26  -8  18   72.79    8.70
 -26   8  18   51.49    6.90
 -18  26   8   78.79    8.50
 -18  26  -8   74.99    9.00
 -26  10  18   10.50    5.60
  26 -10  18   13.10    4.80
 -18  26  10   11.20    4.60
 -18  26 -10   12.60    5.40
  26 -12  18   68.89    7.80
 -26  12  18   64.59    8.20
 -18  26  12   69.99    7.70
 -18  26  14  441.46   26.10
 -26  14  18  443.56   26.80
  26 -14  18  452.35   26.60
 -16  18  26  681.63   40.40
  26 -16  18  755.92   40.50
 -26  16  18  752.92   40.70
 -18  26  16  690.63   40.10
 -20  26   0   18.70    5.10
  26   0  20   17.50    5.30
  26  -2  20    1.60    4.30
 -20  26   2   -2.40    4.20
 -20  26  -2    0.80    4.20
  26   2  20    3.70    4.60
 -20  26   4  145.99   11.30
  26  -4  20  144.79   11.70
 -20  26  -4  158.08   11.80
  26   4  20  140.49   11.60
  26  -6  20  131.09   11.20
 -26   6  20  129.39   11.80
 -20  26   6  122.49   10.40
 -20  26  -6  128.59   11.00
 -26   8  20    0.20    5.10
 -20  26   8    4.20    4.70
  26  -8  20   -0.20    4.60
 -20  26  -8   -0.20    4.80
  20  26 -10   32.30    5.30
 -20  26  10   40.20    6.30
 -26  10  20   38.90    7.20
  26 -10  20   39.20    6.80
  26 -12  20    4.20    5.30
 -26  12  20    8.00    6.20
 -20  26  12   17.00    5.40
 -20  26  14  102.49   10.50
  26 -14  20  107.59   11.90
 -22  26   0  210.18   14.20
  26   0  22  187.58   14.20
  26  -2  22   75.99    8.30
 -22  26  -2   69.09    7.70
  26   2  22   67.79    7.80
  26  -4  22   10.40    5.00
 -22  26   4   18.60    5.30
  26   4  22   19.90    5.40
 -22  26  -4   13.40    5.00
 -22  26   6   40.70    6.20
  26  -6  22   52.29    6.80
 -26   6  22   36.80    7.00
 -22  26  -6   36.10    6.20
 -22  26   8    2.60    4.90
  26  -8  22    1.30    5.10
 -26   8  22    5.10    6.20
  22  26  -8    2.50    5.90
 -22  26  -8    1.10    5.10
  26 -10  22  140.69   12.80
  22  26 -10  150.48   11.40
 -26  10  22  165.98   14.50
 -22  26  10  135.69   12.00
 -22  26  12   95.69   11.10
  26 -12  22  108.99   12.10
 -26  12  22   99.09   10.80
  26   0  24   51.29    7.50
 -24  26   0   53.79    7.40
  26  -2  24    6.50    5.40
 -24  26   2    3.30    4.80
  26   2  24   11.70    5.40
 -24  26  -2    3.10    5.10
 -24  26   4  199.98   14.40
  26  -4  24  198.98   14.70
 -24  26  -4  202.08   14.90
  26   4  24  211.98   14.90
 -26   6  24  225.48   17.80
  26  -6  24  241.68   16.70
  24  26  -6  237.28   18.00
 -24  26   6  239.18   15.90
  26   6  24  232.98   16.10
 -24  26  -6  210.38   16.00
  26  -8  24   18.60    6.60
  24  26  -8   17.20    7.40
 -26   8  24    8.20    7.10
  27   1  -1   87.09    8.30
  27  -1   1   81.19    8.20
  27  -1  -1  101.09    8.30
  27   1   1   96.69    8.30
  27  -3   1  228.38   13.90
  27   3  -1  214.08   13.90
  27  -3  -1  209.28   13.60
  27   3   1  202.28   13.80
  -1  27  -3  208.48   13.50
  27   5  -1  604.64   32.20
  27  -5   1  557.94   31.90
   1  27  -5  588.54   31.90
  -1  27  -5  551.44   31.80
  27   5   1  540.65   32.00
  27  -5  -1  614.44   32.10
  27  -7   1  129.89    9.60
   1  27  -7  124.59    9.50
  27   7  -1  127.29    9.90
  27  -7  -1  132.79    9.70
  27   7   1  114.39    9.80
  -1  27  -7  122.99    9.50
  27  -9   1   59.49    6.30
  27   9  -1   46.30    6.10
   1  27  -9   48.10    5.60
  27   9   1   38.60    5.60
  -1  27  -9   33.10    5.10
  27  -9  -1   51.89    5.80
   1  27 -11   10.20    3.90
  27  11  -1    4.20    3.90
 -11  -1  27    8.40    3.20
  27  11   1    7.20    4.20
  -1  27 -11    7.70    3.80
   1  27 -13   58.39    7.00
  27  13  -1   60.69    6.80
 -13   1  27   62.79    6.80
 -13  -1  27   63.49    6.30
  -1  27 -13   59.89    7.20
  27  13   1   64.29    7.10
 -27  15   1  294.67   17.90
 -15   1  27  242.88   17.40
   1  27 -15  306.67   17.60
  27  15  -1  307.17   18.50
 -15  -1  27  303.47   17.00
  27  15   1  290.87   18.50
  -1  27 -15  295.77   17.80
  17  -1  27  305.77   19.60
  27  17  -1  322.87   20.10
 -27  17   1  296.37   19.20
 -17   1  27  349.67   19.30
  27  17   1  325.07   20.20
 -17  -1  27  315.27   18.40
 -27  19   1   82.49    9.10
  27  19  -1   98.29   10.70
 -19   1  27   91.09    9.20
  19  -1  27   79.09    9.30
 -27  19  -1   79.49    8.90
  27  21  -1   32.40    7.10
  21  -1  27   51.99    7.30
 -21   1  27   35.00    6.20
 -27  21   1   30.20    5.60
 -27  21  -1   46.10    6.40
  21   1  27   34.80    6.10
  23  -1  27   45.90    7.00
 -27  23   1   54.49    7.20
  23   1  27   47.90    7.60
 -27  23  -1   47.10    6.80
  27  -1   3  226.18   13.80
  27   1  -3  196.58   13.40
  27   1   3  206.58   13.50
  -3  27  -1  212.18   13.40
  27  -1  -3  204.28   13.50
  27  -3   3  974.30   51.69
  27   3  -3  907.01   51.59
  -3  27  -3  968.90   51.49
  27   3   3  962.50   51.59
  27  -3  -3  968.30   51.59
  27   5  -3 1371.96   75.09
   3  27  -5 1421.66   74.89
  27  -5   3 1490.75   75.09
  -3  27  -5 1426.86   74.99
  27   5   3 1373.36   75.09
  27  -5  -3 1386.06   74.99
  27   7  -3  783.72   43.20
   3  27  -7  819.82   43.00
  27  -7   3  780.02   43.10
  27   7   3  763.72   43.20
  -3  27  -7  817.02   43.30
  27   9  -3  137.69   10.80
  27  -9   3  146.19   10.50
   3  27  -9  164.78   10.60
  27   9   3  144.09   11.00
  -3  27  -9  137.29   10.60
  27  11  -3  184.68   13.00
   3  27 -11  198.18   12.50
  27 -11   3  184.28   12.80
  27  11   3  178.48   13.10
  -3  27 -11  204.18   12.90
 -11  -3  27  190.48   11.30
 -13   3  27  629.24   33.40
  13  -3  27  587.04   33.70
   3  27 -13  514.15   32.90
 -27  13   3  622.24   33.60
  27  13  -3  601.24   33.70
  27  13   3  603.34   33.80
 -13  -3  27  656.63   32.10
  -3  27 -13  605.34   33.50
  27  15  -3 1374.76   70.49
 -15   3  27 1280.27   70.19
 -27  15   3 1345.77   70.39
  15  -3  27 1290.77   70.49
  27  15   3 1326.57   70.59
  -3  27 -15 1283.27   70.19
 -17   3  27 1101.09   57.89
  17  -3  27 1108.49   58.09
  27  17  -3 1039.50   57.99
 -27  17   3 1039.20   57.69
 -19   3  27  406.66   25.60
  19  -3  27  477.65   26.00
  27  19  -3  448.76   26.10
 -27  19   3  419.96   25.40
 -21   3  27   11.80    6.00
  21  -3  27   19.90    6.00
  27  21  -3   18.20    6.60
 -27  21   3   20.70    5.40
 -23   3  27   21.20    7.30
  27  23  -3   18.00    7.30
 -27  23   3   20.10    5.60
  23  -3  27   18.10    6.70
  23   3  27   17.00    5.70
 -27  23  -3   22.60    6.30
  -5  27   1  577.34   30.80
  27   1  -5  526.85   30.80
  27  -1   5  579.44   31.00
  27   1   5  537.05   30.90
  -5  27  -1  598.04   30.90
  27  -1  -5  506.15   30.70
  27   3  -5 1315.67   71.89
  27  -3   5 1469.15   72.19
  -5  27  -3 1378.96   71.89
  27  -3  -5 1302.17   71.89
  27   3   5 1295.87   71.89
  27  -5   5 2144.29  110.99
  27   5  -5 2136.09  110.99
  27   5   5 2081.99  110.99
  -5  27  -5 2065.79  110.89
   5  27  -7 1510.95   79.69
   7  -5  27 1362.46   79.79
  27  -7   5 1507.65   79.89
  -5  27  -7 1619.94   80.19
  27   7   5 1532.35   80.09
  27   9  -5  530.55   30.20
  27  -9   5  557.04   30.10
   5  27  -9  557.44   29.90
   9  -5  27  490.45   30.10
  -5  27  -9  543.55   30.20
  27   9   5  546.15   30.30
  27  11  -5  465.35   25.80
  27 -11   5  448.26   25.50
   5  27 -11  466.95   25.30
  11  -5  27  436.06   25.80
 -27  11   5  461.95   25.70
  27  11   5  432.06   25.80
  -5  27 -11  423.26   25.60
  27 -13   5  965.90   53.09
 -13   5  27 1015.60   53.19
 -27  13   5  998.20   53.29
   5  27 -13 1099.39   52.79
  13  -5  27  908.81   53.29
  27  13  -5  975.30   53.29
  -5  27 -13  953.20   53.19
  27  13   5  969.40   53.39
  27  15  -5 1910.81  102.09
  15  -5  27 1893.21  102.19
 -15   5  27 1958.00  102.09
 -27  15   5 1961.10  102.09
 -27  17   5 1488.25   79.79
  17  -5  27 1485.45   79.99
  27  17  -5 1523.05   79.89
 -17   5  27 1496.45   79.89
 -19   5  27  635.84   37.40
  19  -5  27  699.93   37.50
  27  19  -5  707.63   37.60
 -27  19   5  622.44   37.00
  27  21  -5  124.69   12.30
  21  -5  27  114.99   11.40
 -21   5  27  118.19   12.20
 -27  21   5  109.79   10.70
  23  -5  27  154.28   13.10
 -23   5  27  132.59   14.10
 -27  23   5  136.69   12.30
  27  23  -5  140.89   14.30
  27  -1   7  137.49   10.00
  27   1  -7  122.79    9.70
  -7  27   1  131.09    9.70
  -7  27  -1  126.99    9.50
  27   1   7  114.99    9.40
  27  -1  -7  123.99    9.70
  -7  27   3  825.52   43.90
  27  -3   7  786.02   43.90
  27   3  -7  740.13   43.70
  27   3   7  866.91   44.10
  -7  27  -3  822.12   43.90
  27   5  -7 1451.75   76.59
  -7  27   5 1534.95   76.69
  27  -5   7 1237.78   76.49
  27   5   7 1546.75   76.79
   7  -7  27  951.20   52.59
  27  -7   7 1055.19   52.79
  27   7  -7  861.71   52.39
  27   7   7 1019.50   52.89
  -7  27  -7 1001.40   52.79
   7  27  -9  208.28   13.20
  27   9  -7  209.58   13.60
   9  -7  27  218.28   14.00
 -27   9   7  201.28   13.60
  27  -9   7  209.48   13.70
  27   9   7  198.78   13.70
  -7  27  -9  198.08   13.70
   7  27 -11  101.39    8.10
  27 -11   7   94.39    8.70
  27  11  -7   90.69    8.80
  11  -7  27   81.99    8.90
 -27  11   7   97.69    8.60
  27  11   7   86.09    9.00
  -7  27 -11   83.09    8.60
  13  -7  27  357.36   21.20
  27  13  -7  338.37   20.90
  27 -13   7  332.17   20.70
 -27  13   7  345.87   20.90
   7  27 -13  369.36   19.90
  -7  27 -13  350.06   21.00
  27 -15   7  912.91   47.40
  27  15  -7  900.11   47.40
 -27  15   7  810.32   47.20
 -15   7  27  951.60   47.60
  15  -7  27  768.72   47.30
  27  17  -7  634.24   34.40
 -17   7  27  603.14   34.50
  17  -7  27  587.14   34.60
 -27  17   7  615.34   34.20
 -19   7  27  280.27   18.30
 -27  19   7  244.08   17.10
  19  -7  27  278.67   18.00
  27  19  -7  270.67   17.70
  27  21  -7   36.70    7.00
 -21   7  27   31.10    7.40
  21  -7  27   42.50    7.50
 -27  21   7   34.10    6.30
  27  23  -7   47.80    8.80
  23  -7  27   52.39    7.90
 -27  23   7   47.10    7.10
 -23   7  27   68.99    9.80
  -9  27   1   58.89    6.10
  27  -1   9   48.50    5.70
  -9  27  -1   38.10    5.10
  27   1   9   40.50    5.40
  -9  27   3  155.58   10.80
  27  -3   9  137.49   10.80
  27   3   9  143.79   10.80
  -9  27  -3  158.18   10.90
  27  -5   9  565.74   31.40
  -9  27   5  569.74   31.30
  27   5  -9  555.44   31.20
  27   5   9  551.74   31.40
  -9  27  -5  566.74   31.40
   7  -9  27  208.78   13.60
  27   7  -9  187.28   13.20
  27  -7   9  212.58   13.70
  -9  27   7  208.08   13.10
  27   7   9  192.78   13.40
  -9  27  -7  199.78   13.50
   9  -9  27    6.20    4.00
 -27   9   9    4.50    4.10
   9  27  -9    0.70    3.40
  27   9  -9    3.30    3.60
  27  -9   9    5.30    4.00
  27   9   9    2.80    4.20
  -9  27  -9    4.50    4.00
  27  11  -9    9.10    4.00
   9  27 -11   12.90    3.70
  11  -9  27   10.50    4.60
  27 -11   9    9.40    4.20
 -27  11   9   11.20    4.50
  -9  27 -11   10.90    4.60
  13  -9  27   54.09    6.90
  27  13  -9   47.10    5.90
   9  27 -13   51.29    5.70
 -27  13   9   58.69    6.60
  27 -13   9   50.39    6.20
  -9  27 -13   52.19    6.70
  27  15  -9  264.07   17.70
  27 -15   9  284.97   17.80
 -27  15   9  281.77   18.10
  15  -9  27  333.17   18.80
 -15   9  27  284.27   18.30
  17  -9  27  159.48   13.00
 -27  17   9  159.78   12.10
 -17   9  27  166.38   12.70
  27  17  -9  153.38   12.20
  19  -9  27   29.00    6.30
  27  19  -9   25.50    6.20
 -19   9  27   31.70    6.40
 -27  19   9   33.40    5.90
  21  -9  27   40.90    7.60
  27  21  -9   37.60    7.10
 -21   9  27   18.50    7.00
 -27  21   9   25.70    6.00
 -23   9  27    6.30    7.60
  23  -9  27    7.30    6.20
  27  23  -9   28.80    7.70
 -11  27   1    9.80    3.90
  27  -1  11    9.10    4.10
  27   1  11    6.30    3.80
 -11  27  -1   12.10    4.20
 -11  27   3  181.18   12.50
  27  -3  11  188.28   12.70
  27   3  11  178.78   12.60
 -11  27  -3  197.28   12.90
 -11  27   5  452.75   25.30
  27  -5  11  435.96   25.20
 -11  27  -5  407.76   25.20
  27   5  11  470.05   25.40
  27  -7  11   84.09    8.40
 -11  27   7   91.89    8.40
 -27   7  11  106.19    8.80
 -11  27  -7   81.29    8.40
  27   7  11   84.89    8.80
  27  -9  11    7.60    4.10
  11  27  -9    9.70    3.80
 -27   9  11    7.30    4.40
 -11  27   9   10.50    4.20
  27   9  11    2.40    4.20
 -11  27  -9   10.70    4.70
  11 -11  27   11.90    6.40
 -27  11  11    9.70    4.70
 -11  27  11   11.90    4.20
  27 -11  11   11.80    4.80
  11  27 -11   10.60    3.70
 -11  27 -11   13.90    4.70
 -27  13  11   26.60    5.30
  11  27 -13   25.10    3.20
  27 -13  11   27.30    5.40
  13 -11  27   36.30    6.20
 -11  27  13   33.70    5.70
  27  13 -11   28.50    5.10
 -11  27 -13   35.00    6.30
 -27  15  11  147.59   11.90
  27  15 -11  149.69   11.30
 -15  11  27  145.89   12.10
  15 -11  27  172.68   12.60
  27 -15  11  145.09   11.50
 -27  17  11  119.99   11.00
  17 -11  27  143.49   12.10
  27  17 -11  122.39   10.50
 -17  11  27  137.89   11.80
  27  19 -11   11.70    5.20
 -27  19  11    7.80    5.10
 -19  11  27    2.30    5.50
  19 -11  27   11.00    6.20
 -27  21  11  105.89   11.40
 -21  11  27  108.09   13.10
  21 -11  27  109.39   12.40
 -13  27   1   62.49    7.20
  27  -1  13   51.29    6.10
 -13  27  -1   58.99    7.20
  27   1  13   61.19    7.50
 -13  27   3  621.54   34.40
  27  -3  13  621.84   34.50
 -13  27  -3  627.24   34.50
  27   3  13  609.74   34.40
  27  -5  13  919.71   50.69
 -13  27   5  990.50   50.79
  27   5  13  962.20   50.79
 -13  27  -5  876.71   50.69
  27  -7  13  336.37   20.30
 -27   7  13  327.97   20.30
 -13  27   7  338.77   20.10
 -13  27  -7  340.57   20.30
  27   7  13  339.27   20.30
 -27   9  13   42.10    6.10
  27  -9  13   66.19    7.30
 -13  27   9   61.29    6.70
 -13  27  -9   47.50    6.30
  13  27 -11   27.20    4.30
 -27  11  13   25.60    5.40
 -13  27  11   36.40    5.60
  27 -11  13   24.40    5.20
 -13  27 -11   18.80    5.20
 -13  27  13   94.69    9.40
  27 -13  13   83.09    9.00
 -27  13  13   96.89    9.80
 -13  27 -13   90.49   10.20
  15 -13  27  311.67   20.90
 -27  15  13  313.77   20.40
  27 -15  13  335.27   20.20
 -13  27  15  346.17   20.30
 -17  13  27  416.76   26.60
 -13  27  17  439.76   26.30
  27 -17  13  440.86   26.40
  17 -13  27  491.95   27.50
 -27  17  13  453.75   26.60
  19 -13  27  167.18   14.60
 -19  13  27  150.58   13.90
 -27  19  13  143.89   13.10
 -13  27  19  157.48   12.80
  21 -13  27   -2.90    7.00
 -27  21  13    1.70    5.70
 -21  13  27   35.40    6.80
  27  -1  15  282.67   17.30
 -15  27   1  289.87   17.50
  27   1  15  255.87   17.30
 -15  27  -1  288.97   17.30
  27  -3  15 1287.47   69.79
 -15  27  -3 1307.87   69.89
  27   3  15 1327.77   69.89
 -15  27   5 1878.41  100.09
  27  -5  15 1895.61  100.09
  27   5  15 1877.61  100.09
 -15  27  -5 1927.11  100.19
  27  -7  15  860.91   48.50
 -15  27   7  915.91   48.60
 -27   7  15  920.91   48.90
 -15  27  -7  898.91   48.70
  27   7  15  872.51   48.60
  27  -9  15  219.88   16.30
 -15  27   9  271.47   16.50
 -27   9  15  278.87   17.00
 -15  27  -9  256.57   16.60
  27 -11  15  145.49   11.70
 -27  11  15  153.68   12.10
 -15  27  11  150.08   11.50
  15  27 -11  145.39    9.90
 -15  27 -11  133.79   11.90
  27 -13  15  324.67   20.60
 -27  13  15  352.26   21.00
 -15  27  13  319.17   20.20
 -27  15  15  658.63   38.90
  27 -15  15  684.73   38.60
 -15  27  15  700.03   38.70
 -15  15  27  730.83   39.10
 -27  17  15  911.21   50.99
  27 -17  15  905.31   50.79
  17 -15  27  965.60   51.39
  27  -1  17  344.97   20.20
 -17  27   1  316.77   20.00
 -17  27  -1  332.67   20.10
  27   1  17  339.07   20.20
  27  -3  17 1009.10   54.29
 -17  27   3 1038.60   54.29
  27   3  17  998.80   54.29
 -17  27  -3  971.60   54.19
  27  -5  17 1479.55   73.49
 -17  27   5 1247.78   73.19
  27   5  17 1393.36   73.39
  27  -7  17  587.94   34.10
 -27   7  17  630.54   34.50
 -17  27   7  634.64   34.20
  27   7  17  614.54   34.20
 -17  27  -7  575.14   34.20
  27  -9  17  135.69   11.80
 -17  27   9  161.38   11.60
 -27   9  17  140.59   12.20
 -17  27  -9  145.49   12.10
 -17  27  11  136.59   11.00
  27 -11  17  128.69   11.30
  17  27 -11  125.99    8.80
  17  27 -11  115.89    8.60
 -27  11  17  133.19   11.80
 -17  27 -11  128.49   11.60
 -27  13  17  454.95   26.40
 -17  27  13  422.66   25.50
  27 -13  17  431.26   25.80
  27 -15  17  926.11   50.49
 -27  15  17  946.21   50.89
 -17  27  15  891.51   50.29
  27  -1  19   80.99    9.00
 -19  27   1   76.19    8.40
  27   1  19   83.49    9.10
 -19  27  -1   86.29    8.80
 -19  27   3  389.86   23.80
  27  -3  19  417.96   24.10
  27   3  19  405.86   24.00
 -19  27  -3  410.56   24.00
  27  -5  19  605.04   34.20
 -19  27   5  624.24   34.10
 -19  27  -5  593.44   34.20
  27   5  19  613.54   34.20
 -27   7  19  262.67   17.50
  27  -7  19  255.17   16.60
 -19  27   7  256.77   16.50
 -19  27  -7  255.47   17.00
  27   7  19  247.08   16.70
  27  -9  19   33.90    5.90
 -19  27   9   33.10    5.70
 -27   9  19   18.20    5.80
 -19  27  -9   20.20    5.70
 -19  27  11   11.40    5.40
  27 -11  19    7.20    5.40
 -27  11  19    8.70    6.10
 -27  13  19  170.18   14.10
  27 -13  19  151.28   13.20
 -19  27  13  143.49   12.30
 -21  27   1   38.60    5.90
  27  -1  21   31.30    5.90
  27   1  21   34.90    5.90
 -21  27  -1   26.50    5.60
 -21  27   3   16.80    5.30
  27  -3  21   16.20    5.20
  27   3  21   15.00    5.20
 -21  27  -3   12.00    5.30
  27  -5  21  103.29   10.70
 -21  27   5  110.99   10.30
 -21  27  -5  110.29   10.40
  27   5  21  108.19   10.40
  27  -7  21   33.60    6.20
 -21  27   7   28.40    5.70
 -27   7  21   32.10    6.90
 -21  27  -7   31.30    6.20
  27   7  21   28.10    5.90
 -21  27   9   38.00    6.60
 -27   9  21   34.80    7.50
  27  -9  21   16.60    5.90
  21  27  -9   26.40    6.50
 -21  27  -9   27.80    6.60
  27 -11  21  103.89   11.70
 -21  27  11  106.19   11.10
 -27  11  21  112.29   12.90
 -27  13  21   -2.20    6.30
  27 -13  21   -5.40    6.20
  27  -1  23   50.49    7.00
 -23  27   1   32.40    6.20
  27   1  23   42.90    6.60
 -23  27  -1   38.40    6.20
 -23  27   3   11.50    5.10
  27  -3  23   14.20    5.50
 -23  27  -3   11.50    5.20
  27   3  23   21.90    5.90
 -23  27   5  139.29   11.80
  27  -5  23  156.98   12.60
 -23  27  -5  129.69   12.40
  27   5  23  141.29   12.20
  23  27  -7   48.90    8.90
 -27   7  23   38.00    8.20
  27  -7  23   32.00    6.60
  27   7  23   56.99    7.50
 -23  27  -7   38.40    6.80
 -27   9  23   20.80    7.80
  27  -9  23   13.90    6.40
  28   0   0  168.98   12.00
  28   2   0   21.40    4.90
  28  -2   0   16.00    4.10
  28  -4   0  372.36   21.50
  28   4   0  354.86   21.50
   0  28  -4  368.86   21.30
   0  28  -6  329.47   19.10
  28  -6   0  320.37   19.20
  28   6   0  313.27   19.30
   0  28  -8   -1.00    3.50
  28  -8   0   -3.00    3.60
  28   8   0   -1.90    3.80
   0  28 -10   92.39    8.80
  28  10   0  104.49    9.40
 -12   0  28    5.30    3.40
  28  12   0    3.50    4.50
   0  28 -12    4.10    3.90
  28  14   0   56.79    7.30
   0  28 -14   68.59    6.80
 -14   0  28   41.30    5.40
 -16   0  28  140.09   10.40
  28  16   0  130.99   11.80
 -18   0  28  156.98   11.70
  28  18   0  167.38   13.60
 -28  20   0    1.50    4.50
  28  20   0   -0.10    6.10
  20   0  28   -0.90    5.20
 -28  22   0   87.89    9.60
  28  22   0   65.69    9.10
  22   0  28   98.29   10.50
  28   0  -2    7.00    3.70
  28   0   2   16.50    4.60
  28   2  -2    8.20    3.80
  28  -2   2    8.50    4.00
  28  -2  -2    7.30    3.80
  28   2   2    8.60    4.00
  -2  28  -2    8.20    3.90
  28   4  -2  437.86   26.60
  28  -4   2  486.65   26.50
   2  28  -4  480.85   26.40
  -2  28  -4  457.55   26.40
  28   4   2  445.56   26.50
  28  -4  -2  482.45   26.60
  28   6  -2  465.65   27.90
  28  -6   2  490.55   27.80
   2  28  -6  507.85   27.80
  28  -6  -2  502.25   27.90
  -2  28  -6  521.35   27.90
  28   6   2  466.45   27.90
  28  -8   2   55.09    6.30
   2  28  -8   57.49    6.20
  28   8  -2   49.40    6.50
  28   8   2   39.80    5.80
  -2  28  -8   36.30    5.60
  28  10  -2    4.30    4.10
  28 -10   2    2.20    3.80
   2  28 -10    7.00    4.00
  -2  28 -10    9.00    4.00
 -10  -2  28    9.00    3.20
  28  10   2    7.20    4.30
  28  12  -2   13.20    4.50
 -12   2  28   16.50    4.30
   2  28 -12   18.50    4.50
  28  12   2   15.50    4.90
  -2  28 -12   16.80    4.70
 -12  -2  28   20.30    3.50
  28  14  -2  240.98   15.80
   2  28 -14  213.48   14.80
 -14   2  28  246.28   15.20
  -2  28 -14  247.18   15.40
 -14  -2  28  226.68   13.70
  28  14   2  237.58   15.90
 -28  16   2  395.56   23.90
  16  -2  28  400.46   24.10
  28  16  -2  395.66   24.40
 -16   2  28  422.56   24.10
  28  16   2  426.96   24.60
  28  18  -2  410.86   24.80
 -28  18   2  406.66   24.00
  18  -2  28  421.06   24.50
 -18   2  28  387.26   24.10
  28  18   2  415.96   24.80
 -20   2  28   12.50    5.70
  28  20  -2    8.70    6.10
  20  -2  28   25.30    6.30
 -28  20   2   20.00    5.40
 -22   2  28   28.10    7.20
  22  -2  28   39.90    7.40
  28  22  -2   47.70    8.30
 -28  22   2   30.80    5.90
  22   2  28   27.40    6.20
  28   0   4  382.66   21.40
  -4  28   0  367.76   21.10
  28   0  -4  332.37   21.10
  28  -2   4  519.35   27.20
  28   2  -4  483.25   27.00
  -4  28  -2  455.35   26.70
  28   2   4  489.85   27.10
  28  -2  -4  426.86   26.80
  28  -4   4 1413.36   72.49
  28   4  -4 1355.16   72.39
  28   4   4 1372.06   72.49
  -4  28  -4 1327.07   72.29
  28  -4  -4 1327.27   72.29
  28  -6   4 1572.84   82.79
   4  28  -6 1521.75   82.59
  -4  28  -6 1664.03   82.99
  28   6   4 1483.95   82.79
   4  28  -8  650.43   36.10
  28   8  -4  689.63   36.60
  28  -8   4  636.94   36.30
  -4  28  -8  665.63   36.40
  28   8   4  646.64   36.50
  10  -4  28  207.38   14.20
  28 -10   4  226.68   14.00
   4  28 -10  172.08   13.50
  28  10  -4  225.28   14.50
  28  10   4  217.08   14.40
  -4  28 -10  228.78   14.20
  28 -12   4  369.06   21.60
  28  12  -4  369.26   21.80
  12  -4  28  371.66   21.90
   4  28 -12  327.67   21.00
  28  12   4  388.76   22.10
  -4  28 -12  365.16   21.70
 -14   4  28 1010.30   53.19
   4  28 -14  870.21   52.49
  14  -4  28  991.20   53.49
 -28  14   4 1015.20   53.29
  28  14  -4  987.20   53.39
  -4  28 -14 1042.90   53.39
  28  14   4  973.20   53.49
 -28  16   4 1250.77   66.19
  16  -4  28 1211.88   66.39
  28  16  -4 1256.67   66.39
 -16   4  28 1214.08   66.19
 -18   4  28 1018.70   55.09
  28  18  -4 1076.69   55.29
  18  -4  28  976.50   54.99
 -28  18   4  975.20   54.69
  28  20  -4  195.88   15.30
  20  -4  28  188.88   14.50
 -28  20   4  185.68   13.80
 -20   4  28  189.68   15.00
 -28  22   4   12.10    5.40
  28  22  -4   15.30    7.40
  22  -4  28   28.50    7.00
 -22   4  28   19.40    7.40
  28   0  -6  311.17   19.00
  28   0   6  310.17   18.90
  -6  28   0  325.17   18.90
  -6  28   2  491.75   27.50
  28  -2   6  509.15   27.70
  28   2  -6  488.85   27.60
  -6  28  -2  475.65   27.50
  28  -2  -6  472.15   27.60
  28   2   6  487.15   27.70
  28   4  -6 1543.35   80.09
  -6  28   4 1487.85   79.89
  28   4   6 1446.66   79.99
  -6  28  -4 1548.45   80.09
   6  -6  28 1896.31  100.49
  28   6  -6 1815.82  100.49
  28  -6   6 1956.40  100.59
  28   6   6 1895.91  100.69
  -6  28  -6 1957.90  100.79
   6  28  -8  945.61   49.90
   8  -6  28  955.80   50.19
  28   8  -6  934.31   50.09
  28  -8   6  899.41   49.99
  -6  28  -8  901.51   50.09
  28   8   6  910.71   50.09
  28  10  -6  218.28   15.80
  28 -10   6  245.48   15.70
  10  -6  28  254.87   16.00
   6  28 -10  255.57   15.50
  28  10   6  252.37   16.00
  -6  28 -10  244.98   15.80
   6  28 -12  285.67   17.70
  12  -6  28  307.47   18.80
 -28  12   6  299.97   18.40
  28 -12   6  294.87   18.20
  28  12  -6  306.07   18.80
  -6  28 -12  300.47   18.60
  28  12   6  302.57   18.80
   6  28 -14  747.83   44.60
 -14   6  28  847.92   45.70
  28 -14   6  802.02   45.40
  14  -6  28  936.21   46.20
 -28  14   6  804.32   45.50
  28  14  -6  833.92   45.70
  -6  28 -14  883.11   45.90
 -16   6  28 1031.40   58.29
 -28  16   6 1071.39   58.19
  28  16  -6 1029.70   58.29
  16  -6  28 1184.98   58.79
  28  18  -6  928.11   52.69
 -28  18   6  917.61   52.39
  18  -6  28 1055.19   53.09
  20  -6  28  207.18   15.50
 -28  20   6  196.88   14.40
  28  20  -6  210.38   15.80
 -20   6  28  202.68   16.10
  28  22  -6   35.20    8.20
 -22   6  28   52.59    9.20
 -28  22   6   47.40    7.10
  22  -6  28   34.60    7.20
  -8  28   0    4.40    3.60
  28   0   8   -2.70    3.60
  28   2  -8   35.20    5.40
  28  -2   8   41.90    5.50
  -8  28   2   37.30    5.20
  28   2   8   49.80    6.10
  -8  28  -2   30.10    4.90
  -8  28   4  625.44   34.20
  28  -4   8  664.83   34.40
  28   4  -8  631.24   34.20
  -8  28  -4  510.15   34.00
  28   4   8  652.43   34.40
  28   6  -8  895.41   49.60
  -8  28   6  874.41   49.50
  28  -6   8  943.71   49.90
  28   6   8  900.61   49.80
  -8  28  -6  979.60   49.90
   8  28  -8  282.07   16.80
  28   8  -8  266.07   16.90
  28  -8   8  274.37   17.10
  28   8   8  275.57   17.20
  -8  28  -8  264.07   17.10
  28  10  -8   16.60    4.60
   8  28 -10   10.80    4.00
  10  -8  28   20.30    5.10
  28 -10   8   13.50    4.50
 -28  10   8   13.10    4.30
  -8  28 -10   12.60    5.00
  28  10   8   11.80    4.70
 -28  12   8   58.99    6.70
  12  -8  28   32.50    5.80
   8  28 -12   51.99    5.50
  28  12  -8   31.80    5.50
  28 -12   8   39.00    5.70
  -8  28 -12   31.00    5.60
  28  12   8   38.70    6.20
  28 -14   8  277.47   17.10
 -28  14   8  283.37   17.40
 -14   8  28  269.87   17.50
  28  14  -8  272.67   17.30
  14  -8  28  265.37   17.70
   8  28 -14  266.37   15.70
  -8  28 -14  259.67   17.70
 -28  16   8  403.66   23.50
  16  -8  28  408.16   24.00
 -16   8  28  374.66   23.70
  28  16  -8  384.86   23.60
 -28  18   8  281.77   17.90
 -18   8  28  287.37   18.80
  28  18  -8  258.47   18.30
  18  -8  28  279.37   18.60
  28  20  -8   21.30    7.00
 -20   8  28   19.20    7.30
  20  -8  28   22.70    6.90
 -28  20   8   11.90    5.30
  28  22  -8   -1.40    7.70
  22  -8  28   -0.60    6.60
 -22   8  28    0.90    7.40
 -10  28   0  100.39    8.90
  28   0  10  107.69    9.10
 -10  28   2    8.70    3.90
  28  -2  10   10.70    4.30
  28   2  10    7.30    4.10
 -10  28  -2   13.10    4.30
 -10  28   4  218.68   14.70
  28  -4  10  235.28   14.90
 -10  28  -4  236.08   15.00
  28   4  10  228.18   14.80
 -10  28   6  266.37   16.40
  28  -6  10  261.77   16.50
  28   6  10  267.87   16.70
 -10  28  -6  257.47   16.60
  28   8 -10   11.60    4.30
  10  28  -8   14.30    4.20
  28  -8  10   11.30    4.30
 -10  28   8   12.40    4.20
  28   8  10   14.40    4.70
 -10  28  -8    9.70    4.60
  10  28 -10   36.10    5.10
 -10  28  10   49.99    6.20
  28 -10  10   43.30    5.90
  28  10 -10   47.40    5.80
 -28  10  10   31.00    5.40
 -10  28 -10   26.60    5.40
  28  10  10   48.60    6.50
  28  12 -10    6.80    4.50
  10  28 -12    5.00    3.60
 -28  12  10    9.20    4.70
  28 -12  10   11.80    4.70
 -10  28 -12    7.00    5.00
  14 -10  28   34.80    6.60
 -28  14  10   33.60    6.10
  28  14 -10   33.30    5.70
 -14  10  28   39.60    6.50
  28 -14  10   27.50    5.40
 -10  28 -14   22.80    5.70
  16 -10  28   57.79    7.60
  28  16 -10   58.29    7.10
 -28  16  10   76.89    9.10
 -16  10  28   74.69    8.20
  28 -16  10   77.29    8.90
 -18  10  28   55.69    7.80
  18 -10  28   57.09    7.90
 -28  18  10   38.70    6.40
  28  18 -10   49.80    7.00
  28  20 -10   30.60    7.00
 -20  10  28   49.20    7.70
 -28  20  10   22.00    5.90
  20 -10  28   22.00    6.60
 -12  28   0   10.00    4.20
  28   0  12    8.00    4.30
 -12  28   2   28.70    5.30
  28  -2  12   18.60    4.80
 -12  28  -2   30.10    5.50
  28   2  12   25.20    4.90
 -12  28   4  367.56   21.10
  28  -4  12  339.37   21.10
  28   4  12  367.36   21.30
 -12  28  -4  348.77   21.20
  28  -6  12  309.47   18.00
 -12  28   6  288.17   17.80
 -12  28  -6  286.97   18.10
  28   6  12  281.17   18.00
 -28   8  12   35.80    5.70
  28  -8  12   47.20    6.00
 -12  28   8   35.40    5.30
  28   8  12   36.00    5.90
 -12  28  -8   44.40    6.20
 -28  10  12    6.40    4.90
  12  28 -10    8.40    4.00
  28 -10  12   12.00    4.60
 -12  28  10   10.90    4.70
  28  10  12    2.90    4.40
 -12  28 -10    8.30    4.80
  12  28 -12    0.40    3.20
 -12  28  12    3.10    4.60
 -28  12  12   -2.10    4.50
  28 -12  12    0.60    4.30
 -12  28 -12    2.70    5.10
 -12  28  14   37.60    5.80
  28 -14  12   41.40    6.10
 -28  14  12   25.10    5.60
 -12  28  16  158.48   12.40
  28 -16  12  161.78   12.50
 -28  16  12  151.38   12.90
 -16  12  28  174.98   13.40
  16 -12  28  162.58   13.80
  18 -12  28  112.19   12.60
 -18  12  28  104.69   12.30
 -12  28  18  116.89   11.10
 -28  18  12  111.19   11.50
 -20  12  28    3.20    6.80
 -28  20  12   10.40    6.50
  20 -12  28   28.90    7.30
  28   0  14   37.90    5.70
 -14  28   0   57.09    6.70
 -14  28   2  194.08   14.60
  28  -2  14  234.78   14.90
  28   2  14  236.28   14.90
 -14  28  -2  240.88   15.10
 -14  28   4  936.21   50.09
  28  -4  14  960.50   50.19
  28   4  14  944.11   50.19
 -14  28  -4  853.41   49.99
  28  -6  14  822.82   43.80
 -14  28   6  840.32   43.80
 -14  28  -6  742.43   43.70
  28   6  14  790.82   43.70
 -14  28   8  280.27   17.60
 -28   8  14  296.57   18.10
 -14  28  -8  268.27   18.00
  28   8  14  280.97   17.70
 -28  10  14   25.30    5.60
  28 -10  14   27.50    5.60
 -14  28  10   32.10    5.70
  14  28 -10   27.80    5.10
 -14  28 -10   41.20    6.60
 -28  12  14   58.69    7.60
  28 -12  14   39.80    6.30
 -14  28  12   45.80    6.70
 -14  28 -12   23.30    6.10
 -28  14  14  178.08   14.00
  28 -14  14  184.88   13.60
 -14  28  14  175.68   13.10
 -14  28  16  456.45   27.10
  28 -16  14  454.75   27.20
 -28  16  14  470.75   27.60
 -14  28  18  450.55   25.70
  18 -14  28  472.75   26.90
 -18  14  28  351.46   25.80
  28   0  16  157.78   11.40
 -16  28   0  130.79   11.20
 -16  28   2  414.86   23.60
  28  -2  16  372.66   23.40
  28   2  16  394.76   23.50
 -16  28  -2  413.66   23.60
  28  -4  16 1128.99   61.99
  28   4  16 1132.99   61.99
 -16  28  -4 1200.58   62.19
  28  -6  16 1043.60   54.29
 -16  28   6 1112.79   54.49
 -16  28  -6  849.61   54.09
  28   6  16 1005.70   54.29
 -16  28   8  374.06   22.20
 -28   8  16  355.86   22.70
  28  -8  16  408.16   22.70
  28   8  16  369.76   22.50
 -16  28  -8  355.86   22.60
  28 -10  16   75.99    9.20
 -16  28  10   71.69    8.90
  16  28 -10   77.49    8.50
 -28  10  16   98.19    9.20
 -16  28 -10   60.29    7.60
 -28  12  16  162.28   13.50
 -16  28  12  158.48   12.70
  28 -12  16  168.48   13.00
  28 -14  16  469.15   27.00
 -28  14  16  450.55   27.20
 -16  28  14  440.16   26.50
  28   0  18  167.68   12.50
 -18  28   0  171.28   12.60
 -18  28   2  375.86   23.20
  28  -2  18  382.06   23.30
  28   2  18  399.76   23.50
 -18  28  -2  415.96   23.40
 -18  28   4  955.90   49.50
  28  -4  18  922.91   49.50
  28   4  18  992.20   49.60
 -18  28  -4  760.32   49.10
  28  -6  18  840.02   47.30
 -18  28   6  892.91   47.50
 -18  28  -6  858.91   47.60
  28   6  18  875.81   47.50
 -18  28   8  240.38   17.50
 -28   8  18  298.47   18.80
  28  -8  18  281.67   18.00
  28   8  18  284.27   17.90
 -18  28  -8  282.17   18.10
  28 -10  18   56.39    7.50
  18  28 -10   60.09    6.60
 -28  10  18   39.40    7.10
 -18  28  10   63.19    7.30
 -18  28 -10   57.89    7.70
 -18  28  12  103.39   10.60
  28 -12  18  109.99   11.20
 -28  12  18  105.39   11.90
 -18  28  14  336.07   23.50
  28 -14  18  435.26   23.90
 -20  28   0    0.20    4.60
  28   0  20    3.10    4.80
 -20  28   2    9.30    4.80
  28  -2  20   19.30    5.60
 -20  28  -2    7.00    4.80
  28   2  20   14.20    5.20
 -20  28   4  195.18   14.00
  28  -4  20  201.78   14.40
 -20  28  -4  180.68   14.20
  28   4  20  192.68   14.10
  28  -6  20  197.08   14.40
 -20  28   6  184.88   14.20
  28   6  20  191.88   14.50
 -20  28  -6  225.18   14.90
 -20  28   8   15.10    5.30
  28  -8  20   17.20    5.70
 -28   8  20   15.10    6.50
  28   8  20   16.90    5.80
 -20  28  -8   11.40    5.80
 -28  10  20   39.60    7.90
  20  28 -10   31.60    6.10
  28 -10  20   45.90    7.50
  20  28 -10   26.40    5.80
 -20  28  10   24.30    6.00
 -28  12  20   -5.00    6.50
  28 -12  20    8.10    6.40
  28   0  22   93.59   10.10
 -22  28   0   94.59   10.40
 -22  28   2   24.80    5.80
  28  -2  22   25.20    5.90
  28   2  22   45.30    7.10
 -22  28  -2   43.70    7.00
 -22  28   4   11.50    5.30
  28  -4  22   13.10    5.50
 -22  28  -4   10.40    5.50
  28   4  22   15.70    5.70
  28  -6  22   53.39    7.90
 -22  28  -6   57.19    8.10
  28   6  22   50.19    7.40
 -28   8  22   -0.30    6.80
  22  28  -8    3.60    7.50
  28  -8  22    2.90    5.50
  28   8  22    6.70    5.60
 -22  28  -8    5.40    6.20
  29   1  -1  364.76   20.80
  29  -1   1  373.76   20.90
  29  -1  -1  351.26   20.60
  -1  29  -1  336.57   20.40
  29   1   1  307.87   20.70
  29  -3   1   -0.70    3.70
  29   3  -1    5.10    4.20
   1  29  -3   -2.10    3.70
  29  -3  -1   -0.50    3.70
  29   3   1    3.50    4.20
  -1  29  -3    0.80    3.60
   1  29  -5  175.48   12.20
  29  -5   1  166.08   12.10
  29   5  -1  186.18   12.70
  29   5   1  176.88   12.60
  29  -5  -1  178.08   12.30
  -1  29  -5  166.98   12.20
  29   7  -1    5.70    4.10
   1  29  -7    6.10    4.10
  29  -7   1    8.00    4.10
  29  -7  -1    3.70    4.20
  29   7   1    7.30    4.20
  -1  29  -7    4.70    3.90
  29  -9   1  130.29   10.30
   1  29  -9  102.59   10.00
  29   9  -1  131.49   10.60
  -1  29  -9  133.39   10.30
  29   9   1  119.89   10.50
 -11   1  29  219.58   14.20
  29  11  -1  215.48   15.00
   1  29 -11  223.68   14.60
 -11  -1  29  216.18   13.70
  -1  29 -11  225.38   14.70
  29  11   1  220.38   15.10
  29  13  -1   38.30    6.40
 -13   1  29   49.20    6.10
   1  29 -13   44.70    6.30
  -1  29 -13   53.69    6.60
  29  13   1   42.10    6.70
 -13  -1  29   39.20    5.20
   1  29 -15    2.70    4.60
 -15   1  29   -3.00    4.60
  29  15  -1    1.50    5.00
  29  15   1   -2.20    4.90
 -15  -1  29    0.20    3.70
  -1  29 -15   -1.10    4.60
 -17   1  29  121.99   11.20
  29  17  -1  136.59   12.40
  17  -1  29  136.89   11.70
 -17  -1  29  124.39    9.70
  29  17   1  139.99   12.40
 -19   1  29   19.20    5.90
  19  -1  29   21.10    6.10
 -29  19   1   15.30    5.30
  29  19  -1   10.40    6.10
  29  19   1   14.60    6.50
 -29  21   1  105.79   10.70
  21  -1  29  101.39   11.10
  29  21  -1  105.09   13.20
  21   1  29  102.59   11.60
  29  21   1  110.29   13.10
  29   1  -3    1.10    3.80
  -3  29   1    2.70    3.70
  29  -1   3    3.40    4.00
  29  -1  -3    0.30    4.00
  -3  29  -1   -2.20    3.70
  29   1   3   -1.40    4.00
  29  -3   3  128.99   10.00
  29   3  -3  124.99   10.30
  -3  29  -3  118.49    9.80
  29  -3  -3  124.89   10.20
  29   3   3  129.39   10.40
  29   5  -3  589.94   31.50
  29  -5   3  549.54   31.10
   3  29  -5  554.14   31.00
  -3  29  -5  555.94   31.10
  29   5   3  548.35   31.20
  29  -5  -3  527.55   31.00
  29   7  -3  255.47   16.30
   3  29  -7  252.77   15.70
  29  -7   3  264.87   15.90
  -3  29  -7  211.78   15.70
  29   7   3  253.17   16.10
  29   9  -3    6.50    4.40
   3  29  -9   10.90    4.30
  29  -9   3   12.00    4.40
  -9  -3  29   14.90    3.40
  -3  29  -9   16.70    4.60
  29   9   3   10.70    4.50
   3  29 -11    5.50    4.20
  29  11  -3    0.60    4.40
  29 -11   3    5.00    4.40
 -11  -3  29    8.40    3.00
  29  11   3    1.60    4.40
  -3  29 -11    5.00    4.30
  13  -3  29   56.89    7.40
  29  13  -3   68.79    8.00
   3  29 -13   64.59    6.90
 -13   3  29   55.49    6.90
  29  13   3   70.89    8.10
  15  -3  29  230.48   15.60
   3  29 -15  226.98   14.80
 -15   3  29  203.28   15.20
  29  15  -3  238.68   15.80
  -3  29 -15  221.38   15.50
  29  15   3  220.68   15.90
  17  -3  29  551.24   32.20
 -29  17   3  558.04   31.90
 -17   3  29  536.55   32.20
  29  17  -3  596.54   32.70
  29  17   3  574.94   32.70
 -19   3  29  141.69   13.20
  29  19  -3  135.09   13.50
  19  -3  29  153.58   12.80
 -29  19   3  136.49   11.90
  29  19   3  152.18   13.70
  21  -3  29   16.90    6.30
 -29  21   3    8.60    5.40
 -21   3  29   19.40    7.30
  29  21  -3   17.60    7.60
  -5  29   1  170.68   12.10
  29  -1   5  185.98   12.50
  29   1  -5  168.58   12.30
  -5  29  -1  169.28   12.00
  29  -1  -5  163.58   12.20
  29   1   5  181.68   12.40
  29   3  -5  514.25   30.20
  -5  29   3  566.44   30.20
  29   3   5  550.94   30.40
  29  -3  -5  505.65   30.10
  -5  29  -3  546.65   30.20
  29   5  -5 1408.96   73.79
  29  -5   5 1407.36   73.79
  29   5   5 1343.07   73.79
  -5  29  -5 1373.46   73.79
  29  -7   5 1038.80   57.09
  29   7  -5 1085.19   57.39
   7  -5  29 1126.39   57.39
   5  29  -7 1051.89   57.09
  -5  29  -7 1076.69   57.39
  29   7   5  996.00   57.19
  29  -9   5  332.97   20.00
  29   9  -5  286.27   20.00
   5  29  -9  340.77   19.80
   9  -5  29  360.56   20.30
  -5  29  -9  333.37   20.00
  29   9   5  324.27   20.10
  11  -5  29   79.09    8.80
   5  29 -11   73.19    8.10
  29  11  -5   66.29    7.60
  29 -11   5   65.89    7.70
  29  11   5   58.09    7.10
  -5  29 -11   70.79    8.60
  13  -5  29  260.27   16.90
  29  13  -5  266.97   17.10
   5  29 -13  235.38   15.90
 -13   5  29  262.27   16.70
  29 -13   5  254.77   16.50
  -5  29 -13  244.08   16.70
  29  13   5  267.67   17.20
 -29  15   5  601.24   34.20
  29  15  -5  632.64   34.70
 -15   5  29  610.44   34.40
  15  -5  29  570.14   34.50
  -5  29 -15  603.24   34.50
  29  15   5  635.64   34.80
 -29  17   5 1086.79   58.79
  17  -5  29 1139.49   59.19
  29  17  -5 1062.89   58.99
 -17   5  29 1056.49   59.09
  29  17   5 1088.39   59.19
  29  19  -5  338.27   22.30
 -19   5  29  346.17   22.40
  19  -5  29  357.76   22.00
 -29  19   5  337.77   21.20
  29  21  -5   17.50    7.40
 -29  21   5   16.10    5.80
 -21   5  29   11.00    7.70
  21  -5  29    9.40    6.10
  29  -1   7    6.50    4.20
  29   1  -7    6.00    4.20
  -7  29   1    5.50    3.80
  29   1   7    3.60    3.90
  -7  29  -1    8.80    4.20
  -7  29   3  269.37   16.50
  29   3  -7  273.97   16.70
  29  -3   7  267.37   16.70
  -7  29  -3  253.77   16.50
  29   3   7  250.37   16.50
  29   5  -7 1002.20   55.79
  -7  29   5 1047.90   55.79
  29  -5   7 1026.00   55.89
  29   5   7 1070.89   55.99
  29  -7   7  898.41   48.20
   7  29  -7  906.51   48.10
  29   7  -7  877.01   48.10
  29   7   7  865.41   48.20
  -7  29  -7  881.31   48.20
   7  29  -9  210.48   14.00
  29   9  -7  208.48   14.20
  29  -9   7  200.98   14.00
  29   9   7  207.48   14.40
  -7  29  -9  230.28   14.60
  29  11  -7   20.50    5.40
  29 -11   7   24.30    5.00
  11  -7  29   18.70    5.30
   7  29 -11   22.70    4.90
  -7  29 -11   19.50    5.10
  29  11   7   16.70    5.10
  29 -13   7  130.69   10.50
  13  -7  29  119.99   11.20
 -29  13   7  126.39   10.60
   7  29 -13  100.19    9.60
  29  13  -7  135.49   11.20
  29  13   7  127.29   11.20
  -7  29 -13  115.79   11.00
 -15   7  29  375.76   22.50
  29  15  -7  309.97   22.30
  15  -7  29  408.46   22.80
 -29  15   7  371.86   22.10
  29  17  -7  682.13   36.70
 -17   7  29  641.74   36.70
  17  -7  29  636.74   36.60
 -29  17   7  610.64   36.00
  29  19  -7  163.88   14.80
  19  -7  29  167.68   14.20
 -19   7  29  172.88   15.30
 -29  19   7  160.38   13.10
 -21   7  29    3.10    7.70
  21  -7  29    6.00    6.90
  29  21  -7    0.60    7.60
  29  -1   9  117.29   10.20
  -9  29   1  119.29   10.00
  -9  29  -1  132.89   10.20
  29   1   9  129.59   10.20
  29  -3   9    9.20    4.30
  -9  29   3   14.30    4.20
  29   3   9   14.40    4.70
  -9  29  -3   15.60    4.60
  29  -5   9  316.87   19.40
  -9  29   5  320.17   19.10
  29   5  -9  323.57   19.30
  -9  29  -5  306.17   19.30
  29   5   9  318.67   19.40
  -9  29   7  218.88   14.30
  29   7  -9  225.88   14.50
  29  -7   9  204.58   14.20
  -9  29  -7  212.28   14.60
  29   7   9  216.78   14.70
   9  29  -9   -0.10    4.00
  -9  29   9   -4.50    3.70
  29  -9   9    3.40    4.40
  29   9  -9    3.50    4.50
  -9  29  -9   -1.00    4.50
  29   9   9   -3.00    4.50
  29  11  -9   47.80    6.60
   9  29 -11   78.19    8.20
 -29  11   9   79.19    7.90
  29 -11   9   74.39    8.30
  -9  29 -11   76.59    9.10
  29  11   9   60.19    7.30
 -29  13   9   11.40    5.20
  13  -9  29    5.50    5.50
  29  13  -9    5.70    4.80
  29 -13   9    6.30    4.40
   9  29 -13    7.60    4.00
  -9  29 -13    0.80    4.90
  29  13   9    9.90    5.40
  15  -9  29   19.60    5.80
 -29  15   9   21.60    5.30
 -15   9  29   21.70    6.00
  29  15  -9   16.00    5.50
  29 -15   9   26.30    5.50
 -17   9  29   95.79   11.40
  29  17  -9   91.39   11.00
 -29  17   9   87.79    9.90
  17  -9  29  100.89   11.70
  29  19  -9    1.10    6.30
 -19   9  29   11.50    6.70
  19  -9  29   -2.30    6.00
 -29  19   9    5.70    5.30
  29  -1  11  226.88   14.30
 -11  29   1  209.98   13.90
 -11  29  -1  197.48   14.10
  29   1  11  206.98   14.10
 -11  29   3    4.70    4.30
  29  -3  11    3.00    4.40
 -11  29  -3    1.90    4.40
  29   3  11    2.70    4.20
 -11  29   5   72.09    8.10
  29  -5  11   61.99    7.90
  29   5  11   77.69    8.40
 -11  29  -5   74.99    8.60
 -11  29   7   25.00    5.30
  29  -7  11   28.70    5.70
  29   7  11   24.60    5.40
 -11  29  -7   20.80    5.50
  29  -9  11   76.39    8.60
  11  29  -9   77.09    8.60
 -11  29   9   67.49    8.40
 -11  29  -9   79.29    9.20
  29   9  11   77.79    9.10
  11  29 -11  187.88   14.10
 -29  11  11  214.88   15.00
  29 -11  11  208.88   14.50
 -11  29  11  238.18   14.90
  29  11  11  221.68   15.30
 -11  29 -11  230.38   15.30
  29 -13  11   63.79    7.50
 -11  29  13   76.99    8.40
 -29  13  11   69.59    7.80
  11  29 -13   68.39    6.60
 -11  29 -13   86.89    8.80
 -11  29  15    0.40    4.60
  29 -15  11   -2.40    4.70
 -15  11  29   -2.30    5.40
 -29  15  11   -1.70    5.00
 -29  17  11   29.60    6.70
 -17  11  29   34.80    7.30
  17 -11  29   11.40    6.20
 -29  19  11    8.30    5.90
 -19  11  29    0.10    6.80
  19 -11  29    8.30    7.00
 -13  29   1   36.70    5.70
  29  -1  13   40.60    5.80
 -13  29  -1   32.30    5.40
  29   1  13   38.70    5.90
 -13  29   3   44.90    5.70
  29  -3  13   41.90    5.90
 -13  29  -3   43.50    6.20
  29   3  13   35.50    5.70
  29  -5  13  265.27   16.90
 -13  29   5  276.47   16.80
  29   5  13  264.87   17.00
 -13  29  -5  249.88   16.80
  29  -7  13  113.69   10.20
 -13  29   7  120.09   10.10
 -13  29  -7  115.99   10.80
  29   7  13  120.49   10.70
  29  -9  13    5.60    4.80
 -13  29   9    8.10    4.80
 -29   9  13    8.30    5.10
  13  29  -9    9.70    4.70
 -13  29  -9    9.50    5.30
  29   9  13    7.90    5.10
 -13  29  11   92.09    8.80
 -29  11  13   85.29    9.00
  13  29 -11   83.79    8.60
  29 -11  13   82.59    8.50
  29  11  13   77.19    8.70
 -13  29 -11   85.99   10.20
 -29  13  13   17.80    6.00
  29 -13  13   20.90    5.40
 -13  29  13   15.00    5.30
 -13  29 -13   16.70    6.60
 -15  13  29   16.30    6.10
 -29  15  13   12.60    5.60
 -13  29  15   23.60    5.90
  29 -15  13   18.90    5.60
 -17  13  29  127.69   12.60
 -13  29  17  102.59   10.90
  29 -17  13  114.29   11.30
  29  -1  15   -1.60    4.10
 -15  29   1    1.10    4.50
 -15  29  -1    0.60    4.20
  29   1  15    0.30    4.30
  29  -3  15  213.08   13.90
 -15  29   3  166.28   13.50
 -15  29  -3  189.38   13.60
  29   3  15  211.78   13.80
  29  -5  15  601.74   33.20
 -15  29   5  614.34   33.20
 -15  29  -5  562.84   33.30
  29   5  15  579.14   33.20
  29  -7  15  384.46   22.30
 -15  29   7  349.87   21.80
 -15  29  -7  375.16   22.40
  29   7  15  357.96   22.10
 -15  29   9   36.10    6.00
  15  29  -9   19.90    5.50
  29  -9  15   27.20    5.70
 -29   9  15   14.70    5.50
 -15  29  -9   19.90    5.60
  29   9  15   23.20    5.70
  29 -11  15   -0.50    4.80
 -15  29  11   -1.20    4.60
  15  29 -11    7.10    4.30
 -29  11  15   -4.80    5.10
 -15  29 -11   -0.40    5.60
  29 -13  15   23.50    5.80
 -29  13  15   34.90    7.20
 -15  29  13   23.80    5.70
 -17  29   1  134.99   10.80
  29  -1  17  119.09   10.50
 -17  29  -1  112.19   10.60
  29   1  17  115.99   10.70
  29  -3  17  572.04   31.40
 -17  29   3  533.95   31.20
  29   3  17  555.44   31.30
 -17  29  -3  539.45   31.40
  29  -5  17 1011.50   57.89
 -17  29   5 1156.88   58.29
 -17  29  -5 1116.99   58.29
  29   5  17 1012.20   57.99
  29  -7  17  612.44   34.10
 -17  29   7  626.04   34.20
  29   7  17  611.04   34.20
 -17  29  -7  565.74   34.20
  29  -9  17   95.49   10.60
 -17  29   9   88.09    9.60
 -29   9  17  113.99   11.50
 -17  29  -9   92.79   11.00
  29   9  17  105.69   10.60
  29 -11  17   21.20    6.20
  17  29 -11   23.80    4.60
 -29  11  17   22.50    7.00
 -17  29  11   11.80    5.40
  17  29 -11   29.70    4.60
 -17  29 -11   18.60    6.40
  29 -13  17  112.49   11.50
 -17  29  13  111.09   11.30
 -19  29   1   13.30    5.60
  29  -1  19   15.60    5.30
 -19  29  -1   18.00    5.60
  29   1  19   19.10    5.50
 -19  29   3  124.49   10.70
  29  -3  19  127.39   11.00
 -19  29  -3   96.59   10.80
  29   3  19  146.49   11.30
 -19  29   5  330.87   20.30
  29  -5  19  327.47   20.40
  29   5  19  336.27   20.40
 -19  29  -5  309.97   20.40
  29  -7  19  170.58   13.30
 -19  29   7  161.98   12.60
 -19  29  -7  158.88   13.30
  29   7  19  161.98   12.90
 -29   9  19    0.20    6.50
 -19  29   9    7.40    5.40
  29  -9  19   12.70    5.20
  29   9  19    4.50    5.60
 -19  29  -9   -0.30    5.70
  29 -11  19    2.30    5.60
 -29  11  19    5.10    6.60
  29  -1  21  107.29   10.90
 -21  29   1   98.89   10.60
  29   1  21   87.99   10.60
 -21  29  -1  116.59   10.90
  29  -3  21   25.40    6.30
 -21  29   3   14.20    5.60
 -21  29  -3   18.40    6.30
  29   3  21   23.00    6.40
  29  -5  21   17.70    6.40
  29   5  21   13.30    6.00
 -21  29  -5   10.90    5.80
  29  -7  21    4.90    5.40
 -21  29  -7    3.50    5.80
  29   7  21   -1.90    5.30
  30   0   0 1562.74   83.09
   0  30  -2  682.43   36.00
  30  -2   0  683.13   36.10
  30   2   0  576.14   36.00
  30  -4   0   35.50    5.90
  30   4   0   32.10    6.00
   0  30  -4   22.50    4.70
   0  30  -6   12.40    4.70
  30  -6   0   14.70    4.80
  30   6   0    7.60    4.60
  30  -8   0  278.37   17.70
  30   8   0  279.17   18.10
   0  30  -8  295.57   18.00
   0  30 -10  740.63   39.60
  30  10   0  686.73   39.70
  30  12   0  700.63   38.70
 -12   0  30  694.83   37.80
   0  30 -12  673.63   38.30
 -14   0  30  398.76   23.90
  30  14   0  418.96   25.00
   0  30 -14  416.46   24.40
 -16   0  30    2.50    4.70
  30  16   0    2.50    6.10
 -18   0  30   -4.90    5.00
  18   0  30    3.40    5.30
  30  18   0   -6.20    5.90
  30  20   0  167.68   15.60
  20   0  30  175.88   14.30
  30   0   2  549.25   34.20
  -2  30   0  663.43   34.20
  30   0  -2  622.14   34.30
  30  -2   2  210.38   13.60
  30   2  -2  189.88   13.50
  30  -2  -2  186.48   13.50
  -2  30  -2  192.48   13.30
  30   2   2  191.88   13.70
   2  30  -4    3.30    3.80
  30  -4   2    5.60    4.40
  30   4  -2    8.90    4.80
  30  -4  -2    2.10    4.00
  30   4   2    3.30    4.30
  -2  30  -4    0.20    3.90
  30   6  -2   21.80    5.50
   2  30  -6   11.20    4.40
  30  -6   2   21.10    5.00
  30  -6  -2   17.40    4.80
  30   6   2   20.20    5.20
  -2  30  -6   13.40    4.40
  30  -8   2   43.80    6.20
  30   8  -2   50.09    7.00
   2  30  -8   68.69    7.40
  30   8   2   58.99    7.40
  -2  30  -8   59.19    7.00
  30 -10   2  290.27   19.00
  30  10  -2  317.07   19.80
   2  30 -10  315.57   19.50
  30  10   2  325.57   19.90
  -2  30 -10  333.67   19.60
 -10  -2  30  315.27   18.40
 -12   2  30  305.07   18.90
   2  30 -12  326.37   19.20
  30  12  -2  290.77   19.40
  -2  30 -12  309.67   19.30
 -12  -2  30  315.57   17.80
  30  12   2  285.37   19.40
   2  30 -14   87.49    9.90
  30  14  -2  111.39   11.00
 -14   2  30   99.19   10.10
  14  -2  30  103.79   10.40
  -2  30 -14   98.79   10.30
 -14  -2  30   93.49    7.30
  30  14   2   96.89   10.80
  16  -2  30   58.69    7.50
  30  16  -2   30.50    6.80
 -16   2  30   60.69    7.70
  30  16   2   51.49    7.50
  18  -2  30   39.20    7.00
  30  18  -2   43.30    7.90
 -18   2  30   31.20    6.90
  30  18   2   21.10    6.70
  20  -2  30   54.29    7.90
 -30  20   2   61.99    7.50
  30  20  -2   44.00    8.50
 -20   2  30   76.39    9.10
  30  20   2   47.30    8.30
  -4  30   0   25.20    4.80
  30   0   4   24.70    5.30
  30   0  -4   30.30    5.60
  30  -2   4    8.10    4.40
  -4  30   2    5.30    4.00
  30   2  -4    3.60    4.00
  -4  30  -2    4.90    3.90
  30   2   4    0.80    4.30
  30  -2  -4    5.80    4.50
  30   4  -4  239.68   15.60
  30  -4   4  234.28   15.40
  30  -4  -4  214.48   15.20
  30   4   4  253.17   15.60
  -4  30  -4  231.78   15.30
   4  30  -6  404.76   22.80
  30   6  -4  395.06   23.10
  30  -6   4  383.66   22.80
  30   6   4  370.06   22.90
  -4  30  -6  369.66   22.80
   4  30  -8  105.29    9.50
   8  -4  30   99.99    9.70
  30   8  -4   87.09   10.00
  30  -8   4  100.09    9.30
  -4  30  -8  108.29    9.80
  30   8   4   99.39    9.70
  10  -4  30    5.90    4.60
   4  30 -10    9.00    4.90
  30  10  -4    5.60    4.90
  30 -10   4    5.10    4.20
  30  10   4    4.60    4.90
  -4  30 -10    5.20    4.60
   4  30 -12   25.60    5.50
  30 -12   4   27.90    5.60
  12  -4  30   23.00    5.60
  30  12  -4   21.30    5.90
  30  12   4   15.50    5.60
  -4  30 -12   29.40    6.10
 -14   4  30   28.50    6.00
   4  30 -14   21.50    5.40
  14  -4  30   12.80    5.50
  30  14  -4   29.70    6.40
  30  14   4   28.90    6.60
  -4  30 -14   26.90    6.10
  30  16  -4  440.76   26.30
 -16   4  30  415.36   26.00
  16  -4  30  451.45   26.30
  30  16   4  429.36   26.30
  30  18  -4  206.88   16.60
 -18   4  30  214.08   16.60
  18  -4  30  211.08   15.90
 -30  18   4  218.58   15.20
  30  18   4  217.58   16.70
  30  20  -4   -0.80    7.00
 -30  20   4    4.10    5.70
  20  -4  30   -1.00    6.30
 -20   4  30    1.00    7.60
  30  20   4    0.70    6.80
  30   0  -6    5.90    4.30
  -6  30   0   16.10    4.50
  30   0   6   12.70    4.80
  30   2  -6   17.60    4.80
  -6  30   2   21.00    4.80
  30  -2   6   22.90    5.40
  30   2   6   23.40    5.20
  -6  30  -2   15.40    4.40
  -6  30   4  376.46   21.60
  30  -4   6  382.16   22.00
  30   4  -6  350.56   21.90
  -6  30  -4  376.96   22.00
  30   4   6  347.37   21.70
  30   6  -6  795.62   42.00
  30  -6   6  752.72   41.70
   6  30  -6  765.52   41.80
  -6  30  -6  781.62   42.00
  30   6   6  704.73   41.80
  30  -8   6  372.46   22.00
  30   8  -6  376.86   22.20
   6  30  -8  361.06   21.90
  30   8   6  356.76   22.20
  -6  30  -8  373.36   22.10
   6  30 -10   18.10    5.00
  30 -10   6   13.20    4.70
  30  10  -6   18.10    5.50
  -6  30 -10   10.60    4.80
  30  10   6   18.00    5.40
  12  -6  30   -3.20    4.70
  30  12  -6    2.90    5.20
   6  30 -12    0.00    4.50
  30 -12   6   -1.50    4.10
  -6  30 -12    6.00    5.00
  30  12   6   -5.40    5.10
  14  -6  30  106.59   11.20
 -14   6  30  100.49   10.80
  30  14  -6  106.89   11.40
   6  30 -14  101.89    9.70
  -6  30 -14  101.79   11.20
  30  14   6  104.69   11.30
 -16   6  30  558.64   33.10
  16  -6  30  587.54   33.10
  30  16  -6  587.04   33.30
 -30  16   6  558.84   32.60
  30  16   6  563.24   33.10
 -30  18   6  265.57   19.00
 -18   6  30  317.67   20.90
  18  -6  30  341.37   20.30
  30  18  -6  282.77   20.50
  30  18   6  290.07   20.30
  20  -6  30    7.50    6.50
  30  20  -6    6.20    8.00
 -20   6  30    7.20    7.90
  -8  30   0  283.67   17.60
  30   0   8  279.67   17.70
  -8  30   2   55.29    6.50
  30  -2   8   57.09    6.90
  -8  30  -2   33.20    5.50
  30   2   8   52.19    6.50
  -8  30   4   89.39    9.00
  30  -4   8   91.79    9.30
  30   4  -8   98.99    9.50
  30   4   8   92.59    9.20
  -8  30  -4   98.09    9.40
  30   6  -8  361.86   21.50
  30  -6   8  348.57   21.10
  -8  30   6  365.16   21.20
  -8  30  -6  357.16   21.40
  30   6   8  338.17   21.30
  30   8  -8   53.59    7.10
   8  30  -8   75.39    8.60
  -8  30   8   76.99    8.00
  30  -8   8   70.09    8.50
  30   8   8   79.29    9.00
  -8  30  -8   84.59    9.00
   8  30 -10   37.90    6.10
  30 -10   8   35.70    5.70
  30  10  -8   40.60    6.30
  -8  30 -10   36.90    6.20
  30  10   8   37.00    6.00
   8  30 -12  116.59   10.30
  30  12  -8  124.39   11.40
  30 -12   8  117.89   10.70
  -8  30 -12  141.09   11.60
  30  12   8  110.89   11.30
   8  30 -14   -0.30    4.20
  14  -8  30   -1.00    5.20
 -14   8  30   -2.20    5.00
  30 -14   8    2.20    4.50
 -30  14   8    2.90    5.10
  30  14  -8    2.80    5.40
  30  14   8   -0.50    5.30
  -8  30 -14   -1.10    5.30
 -16   8  30  116.29   12.20
 -30  16   8  124.09   11.40
  30  16  -8  117.79   12.40
  16  -8  30  102.99   12.00
  30  16   8  130.99   12.50
 -18   8  30   33.20    7.90
  18  -8  30   52.99    8.20
 -30  18   8   29.70    6.30
  30  18  -8   29.40    7.90
 -10  30   0  706.13   38.10
  30   0  10  664.83   37.90
  30  -2  10  308.97   17.60
 -10  30   2  299.07   17.50
 -10  30  -2  223.88   17.30
  30   2  10  283.27   17.60
 -10  30   4    5.60    4.20
  30  -4  10    4.50    4.40
  30   4  10    2.90    4.50
 -10  30  -4    4.60    4.40
  30  -6  10   22.10    5.40
 -10  30   6   23.70    5.40
 -10  30  -6   21.50    5.50
  30   6  10   20.60    5.50
  30  -8  10   31.60    5.70
 -10  30   8   66.19    7.20
  10  30  -8   37.40    6.10
 -10  30  -8   50.79    7.20
  30   8  10   49.60    6.70
  10  30 -10  350.06   21.50
  30 -10  10  377.46   21.80
  30  10 -10  352.16   21.80
 -10  30  10  369.76   21.60
 -10  30 -10  346.17   22.10
  30  10  10  357.26   21.90
  10  30 -12  404.56   23.60
  30 -12  10  378.36   23.90
  30  12 -10  415.66   24.50
 -10  30  12  423.16   24.20
 -30  12  10  444.56   24.70
 -10  30 -12  375.16   24.60
  30  12  10  411.86   24.60
 -30  14  10  126.79   11.40
  30 -14  10  119.19   10.90
  30  14 -10  111.99   11.70
  30  14  10  119.99   11.80
 -10  30 -14  125.49   12.60
 -16  10  30   -2.50    5.70
  16 -10  30    2.10    6.30
 -30  16  10    1.80    5.50
  30  16 -10   -0.80    6.00
  18 -10  30    5.70    6.30
 -18  10  30    3.80    7.30
 -30  18  10    1.30    5.40
  30  18 -10    8.00    7.10
  30   0  12  699.93   33.80
 -12  30   0  494.35   33.20
  30  -2  12  298.27   18.70
 -12  30   2  299.37   18.70
  30   2  12  293.57   18.70
 -12  30  -2  309.97   18.90
 -12  30   4   32.80    5.70
  30  -4  12   25.70    5.50
  30   4  12   20.60    5.30
 -12  30  -4   26.10    5.70
 -12  30   6    2.30    4.20
  30  -6  12    4.20    4.50
  30   6  12    0.00    4.50
 -12  30  -6   -6.60    4.50
  12  30  -8  118.89   10.50
  30  -8  12  102.69    9.90
 -12  30   8  101.39    9.80
  30   8  12  109.29   10.40
 -12  30  -8  104.89   10.60
 -12  30  10  396.96   24.00
  30 -10  12  395.56   24.10
  12  30 -10  413.26   23.90
  30  10  12  396.96   24.40
 -12  30 -10  427.86   24.70
 -12  30  12  446.46   26.90
  12  30 -12  450.45   26.00
 -30  12  12  464.15   27.50
  30 -12  12  467.75   27.10
  30  12  12  464.65   27.60
 -12  30 -12  496.55   28.00
 -14  12  30  162.48   13.60
 -30  14  12  167.78   13.80
  30 -14  12  148.79   12.50
 -12  30  14  175.08   13.20
  16 -12  30    6.50    6.10
 -12  30  16    8.00    8.40
 -16  12  30    2.80    6.10
 -30  16  12    0.70    5.60
  30 -16  12    1.90    5.40
  30   0  14  360.36   22.00
 -14  30   0  377.96   22.30
 -14  30   2   89.49    9.80
  30  -2  14  101.59    9.60
 -14  30  -2  102.49   10.00
  30   2  14  105.99   10.00
  30  -4  14   19.60    5.10
 -14  30   4   21.60    5.10
 -14  30  -4   15.40    5.20
  30   4  14   16.70    5.20
 -14  30   6   93.19    9.80
  30  -6  14   94.29   10.00
  30   6  14  108.19   10.00
 -14  30  -6  109.39   10.60
 -14  30   8    1.30    4.60
  30  -8  14    2.40    4.90
 -14  30  -8    3.20    5.00
  30   8  14    1.70    5.00
 -30  10  14  115.09   11.50
  14  30 -10  119.59   11.30
  30 -10  14  119.39   11.00
 -14  30  10  133.99   11.10
 -14  30 -10  123.89   11.90
  30  10  14  109.89   11.30
 -14  30  12  171.08   12.80
  30 -12  14  142.39   12.30
 -30  12  14  165.68   13.60
  30  12  14  145.29   12.90
 -14  30 -12  147.59   13.80
 -14  14  30   51.79    8.50
  30 -14  14   53.79    7.50
 -14  30  14   51.39    7.30
  30   0  16    3.00    4.90
 -16  30   0    1.80    4.80
  30  -2  16   54.29    6.90
 -16  30   2   54.19    7.10
 -16  30  -2   59.09    7.20
  30   2  16   47.70    6.70
  30  -4  16  410.76   24.20
 -16  30   4  403.46   24.20
 -16  30  -4  397.36   24.40
  30   4  16  420.16   24.40
 -16  30   6  532.25   30.80
  30  -6  16  523.45   30.80
  30   6  16  568.84   31.00
 -16  30  -6  526.85   31.00
  30  -8  16  112.89   10.80
 -16  30   8  114.39   10.60
 -16  30  -8  122.09   11.70
  30   8  16  106.29   10.90
  16  30 -10    2.30    5.70
  30 -10  16   -1.60    5.30
 -16  30  10   -1.20    4.80
 -30  10  16    7.00    6.30
  30  10  16    4.70    5.60
 -16  30 -10   -0.50    5.60
 -30  12  16    1.50    6.00
  30 -12  16    7.10    5.40
 -16  30  12    4.00    7.40
 -16  30 -12    8.10    6.60
  30   0  18    0.30    4.70
 -18  30   0    1.50    5.20
 -18  30   2   31.60    6.00
  30  -2  18   28.60    5.90
 -18  30  -2   18.50    5.60
  30   2  18   31.30    6.20
 -18  30   4  208.28   14.80
  30  -4  18  197.58   14.90
  30   4  18  204.68   15.10
 -18  30  -4  219.18   15.30
  30  -6  18  259.57   17.70
 -18  30   6  252.37   17.70
  30   6  18  283.37   18.10
 -18  30  -6  291.17   18.50
 -18  30   8   36.70    6.20
  30  -8  18   43.40    6.50
  30   8  18   33.10    6.40
 -18  30  -8   32.80    6.90
  18  30 -10    8.00    7.00
  30 -10  18    5.00    5.60
 -30  10  18    2.20    6.80
 -18  30 -10    6.00    6.30
  30  10  18    4.40    5.70
 -20  30   0  150.48   12.70
  30   0  20  158.08   12.80
  30  -2  20   43.40    6.60
 -20  30   2   69.59    7.70
 -20  30  -2   67.79    7.90
  30   2  20   46.50    6.90
  30  -4  20    0.60    5.40
  30   4  20    0.80    5.40
 -20  30  -4   -0.80    5.40
  30  -6  20    8.40    5.50
  30   6  20    8.40    5.50
 -20  30  -6   10.50    6.30
  31   1  -1 1511.35   79.09
  31  -1   1 1499.65   78.99
  31  -1  -1 1471.35   78.99
  -1  31  -1 1448.46   78.79
  31   1   1 1474.65   79.09
  31  -3   1  397.76   24.30
  31   3  -1  401.46   24.50
   1  31  -3  423.26   24.30
  31  -3  -1  412.76   24.40
  31   3   1  434.96   24.90
  -1  31  -3  424.36   24.40
   1  31  -5   94.59    9.10
  31   5  -1   87.19    9.80
  31  -5   1   84.49    8.90
  -1  31  -5   79.29    9.10
  31  -5  -1   82.09    8.90
  31   5   1   83.49    9.50
  31   7  -1  220.78   15.70
   1  31  -7  214.28   15.30
  31  -7   1  224.88   15.20
  -1  31  -7  239.68   15.70
  31  -7  -1  236.58   15.40
  31   7   1  229.38   15.60
  31   9  -1  816.92   45.70
  31  -9   1  809.22   45.30
   1  31  -9  860.71   45.70
  -1  31  -9  852.71   45.60
  31   9   1  798.12   45.60
 -11   1  31 1049.70   58.09
  31  11  -1 1146.49   58.79
   1  31 -11 1114.59   58.59
  -1  31 -11  975.50   58.39
  31  11   1 1117.89   58.79
 -11  -1  31 1084.19   57.79
   1  31 -13 1044.00   56.69
 -13   1  31 1014.20   56.39
  31  13  -1 1085.19   57.09
  31  13   1 1083.79   57.09
  -1  31 -13 1000.80   56.69
 -13  -1  31 1043.90   55.79
  15  -1  31   97.39   10.90
 -15   1  31   98.79   11.00
  31  15  -1  110.09   11.90
   1  31 -15  101.29   11.30
 -15  -1  31   97.79    9.00
  31  15   1  120.09   12.10
  -1  31 -15  105.29   11.70
 -17   1  31   18.90    6.60
  31  17  -1   19.90    7.30
  17  -1  31   27.70    7.00
  31  17   1   30.30    7.60
 -19   1  31  197.38   15.50
  19  -1  31  192.98   15.50
  31  19  -1  188.48   16.60
  19   1  31  173.78   14.90
  31  19   1  200.48   16.60
  31   1  -3  411.56   24.40
  31  -1   3  391.66   24.20
  -3  31   1  406.16   24.10
  -3  31  -1  398.16   24.10
  31   1   3  443.66   24.60
  31  -1  -3  425.26   24.40
  31  -3   3   40.80    6.00
   3  31  -3   31.60    5.50
  31   3  -3   48.60    6.60
  31   3   3   44.00    6.50
  -3  31  -3   40.70    6.10
  31  -3  -3   28.50    5.50
   3  31  -5    3.10    4.50
  31   5  -3    5.60    5.00
  31  -5   3   11.70    4.80
  31  -5  -3    6.80    4.90
  31   5   3    8.10    5.00
  -3  31  -5   11.80    5.00
  31   7  -3    5.70    5.20
  31  -7   3   -0.90    4.30
   3  31  -7    2.00    4.40
  31   7   3   -0.20    4.80
  -3  31  -7    1.00    4.70
  31  -9   3  183.58   13.20
   3  31  -9  163.58   13.30
  31   9  -3  192.78   14.30
  31   9   3  186.88   13.80
  -9  -3  31  186.68   11.80
  -3  31  -9  169.48   13.40
  11  -3  31  379.56   24.50
   3  31 -11  439.46   24.60
  31  11  -3  434.66   25.00
  31 -11   3  405.26   24.30
 -11  -3  31  392.96   22.40
  31  11   3  404.26   24.80
  -3  31 -11  436.16   24.90
  31  13  -3  327.07   20.50
  13  -3  31  312.57   20.20
 -13   3  31  305.07   19.80
   3  31 -13  298.37   19.70
  -3  31 -13  319.27   20.30
  31  13   3  325.17   20.60
  31  15  -3    7.00    6.10
 -15   3  31    8.60    6.10
  15  -3  31   19.50    6.50
  -3  31 -15   18.60    6.50
  31  15   3    3.80    5.80
  17  -3  31   43.60    7.50
 -17   3  31   37.00    8.00
  31  17  -3   55.59    8.70
  31  17   3   47.10    8.10
  31  19  -3   21.00    8.00
 -19   3  31   23.70    8.40
  19  -3  31   18.50    6.70
  31  19   3   14.80    7.30
  -5  31   1   80.99    9.00
  31   1  -5   78.29    9.40
  31  -1   5   89.49    9.20
  31   1   5   88.49    9.30
  -5  31  -1   94.99    9.00
  31  -1  -5   89.49    9.50
  31  -3   5    8.90    4.50
  31   3  -5   11.90    5.10
  -5  31   3    3.70    4.00
  31   3   5    7.50    4.80
  -5  31  -3    5.10    4.30
  31  -5   5  190.28   13.90
  31   5  -5  201.28   14.40
   5  31  -5  213.68   14.20
  -5  31  -5  204.88   14.40
  31   5   5  205.58   14.50
  31   7  -5  168.48   12.80
   5  31  -7  163.98   12.50
  31  -7   5  155.48   12.10
  -5  31  -7  163.58   12.80
  31   7   5  166.58   12.90
  31   9  -5   -1.70    4.80
   5  31  -9   -0.70    4.70
  31  -9   5   -0.20    4.30
  -5  31  -9    0.90    4.90
  31   9   5   -2.10    5.00
  31 -11   5  100.09    9.80
  31  11  -5  106.29   11.30
   5  31 -11   98.29   10.30
  31  11   5   95.09   10.70
  -5  31 -11  112.99   10.90
 -13   5  31   48.10    7.10
   5  31 -13   46.40    6.90
  31  13  -5   32.90    6.90
  13  -5  31   52.09    7.50
  31  13   5   31.70    6.60
  -5  31 -13   51.79    7.60
  31  15  -5  153.88   14.10
  15  -5  31  164.88   13.60
 -15   5  31  146.19   13.60
  31  15   5  150.08   13.60
  -5  31 -15  138.99   13.70
  17  -5  31  203.88   15.50
  31  17  -5  192.08   16.20
 -17   5  31  179.18   15.80
  31  17   5  177.48   15.60
 -19   5  31   -1.50    8.10
  19  -5  31   -0.50    6.80
  31  19  -5    1.30    7.90
  31  19   5    2.40    7.10
  31   1  -7  231.98   15.40
  -7  31   1  218.18   15.00
  31  -1   7  231.58   15.30
  -7  31  -1  219.28   15.00
  31   1   7  229.58   15.10
  -7  31   3    0.30    4.20
  31   3  -7    1.40    4.50
  31  -3   7    4.30    4.40
  31   3   7    3.40    4.80
  -7  31  -3    1.20    4.50
  31  -5   7  166.48   12.30
  31   5  -7  168.58   12.80
  -7  31   5  149.88   12.10
  -7  31  -5  164.88   12.80
  31   5   7  162.28   12.50
  31  -7   7  155.08   11.60
   7  31  -7  142.09   11.90
  31   7  -7  154.28   12.00
  -7  31   7  141.39   11.30
  31   7   7  142.59   11.90
  -7  31  -7  138.59   11.90
  31  -9   7    8.50    4.70
  31   9  -7    8.50    5.30
   7  31  -9    1.80    4.90
  31   9   7    9.10    5.50
  -7  31  -9    4.60    5.10
   7  31 -11  168.28   13.40
  31  11  -7  179.18   13.90
  31 -11   7  181.78   13.10
  -7  31 -11  188.78   14.10
  31  11   7  167.38   13.80
  31 -13   7   98.19   10.10
   7  31 -13   95.79   10.40
  31  13  -7   93.79   11.20
 -13   7  31   95.49   10.90
  -7  31 -13  111.29   11.40
  31  13   7  100.19   11.00
  15  -7  31   66.09    8.60
  31  15  -7   70.19    9.10
  31  15   7   71.19    9.20
 -31  17   7   84.79   10.80
  17  -7  31  106.99   10.90
 -17   7  31  117.19   11.60
  31  17   7   96.49   10.40
  -9  31   1  785.82   43.00
  31  -1   9  770.12   43.00
  -9  31  -1  792.52   43.10
  31   1   9  782.12   43.10
  -9  31   3  166.28   12.60
  31  -3   9  178.88   12.70
  31   3   9  179.48   12.70
  -9  31  -3  154.18   12.90
  -9  31   5    4.60    4.40
  31  -5   9    1.90    4.50
  31   5   9   -0.60    4.60
  -9  31  -5   -2.20    4.70
   9  31  -7    6.50    5.00
  31  -7   9    6.30    4.70
  31   7  -9    9.00    5.20
  -9  31   7   12.80    5.20
  -9  31  -7   11.70    5.50
  31   7   9   10.60    5.20
  31   9  -9  274.47   17.20
   9  31  -9  254.77   16.80
  31  -9   9  235.98   16.50
  -9  31   9  239.88   16.20
  31   9   9  249.88   16.80
  -9  31  -9  250.87   17.10
  31  11  -9  599.04   33.40
  -9  31  11  558.14   32.70
  31 -11   9  582.14   32.90
   9  31 -11  575.54   32.90
  31  11   9  570.44   33.30
  -9  31 -11  606.04   33.60
  31 -13   9  380.96   23.40
   9  31 -13  401.96   23.10
  31  13  -9  369.46   24.10
  31  13   9  375.66   24.00
  -9  31 -13  431.26   24.60
  31  15  -9   14.30    6.80
  31 -15   9   36.10    6.50
 -31  15   9   17.60    5.90
 -15   9  31   16.60    6.40
  31  15   9   29.60    7.20
  17  -9  31    5.00    7.20
  31  17  -9    3.20    7.30
 -31  17   9    0.70    5.60
 -17   9  31    3.40    7.20
  31  17   9    2.50    6.80
 -11  31   1 1054.89   56.89
  31  -1  11 1050.29   56.89
  31   1  11 1052.49   56.99
  31  -3  11  396.26   23.50
 -11  31   3  414.16   23.50
  31   3  11  385.36   23.50
 -11  31  -3  384.06   23.50
  31  -5  11   93.19    9.50
 -11  31   5   98.99    9.40
 -11  31  -5   96.89    9.90
  31   5  11   91.99   10.00
  11  31  -7  201.38   14.10
 -11  31   7  178.68   13.20
  31  -7  11  168.68   13.20
  31   7  11  182.38   13.70
 -11  31  -7  198.78   14.20
  11  31  -9  580.24   33.60
 -11  31   9  614.44   33.50
  31  -9  11  554.24   33.30
 -11  31  -9  619.14   34.00
  31   9  11  590.54   33.70
 -11  31  11  965.40   52.09
  11  31 -11  994.10   51.99
  31 -11  11  951.90   52.09
 -11  31 -11  952.10   52.49
  31  11  11  915.01   52.19
 -11  31  13  677.63   38.30
 -31  13  11  693.33   38.80
  11  31 -13  730.43   37.10
  31 -13  11  639.54   38.20
  31  13  11  672.73   38.80
 -11  31 -13  693.53   39.20
  31  -1  13 1042.50   55.19
 -13  31  -1 1051.59   55.29
  31   1  13  955.30   54.89
  31  -3  13  314.47   19.50
 -13  31   3  310.17   19.40
 -13  31  -3  337.27   19.90
  31   3  13  286.47   19.50
  31  -5  13   59.69    7.10
 -13  31   5   51.19    6.90
 -13  31  -5   33.90    6.40
  31   5  13   53.09    7.10
  31  -7  13   91.89   10.30
 -13  31   7  102.49   10.20
 -13  31  -7   94.99   10.70
  31   7  13   99.79   10.70
  13  31  -9  383.96   23.30
 -13  31   9  359.86   22.70
  31  -9  13  378.26   22.90
 -13  31  -9  384.16   23.40
  31   9  13  383.56   23.10
 -13  31  11  648.44   37.40
  13  31 -11  717.33   37.40
  31 -11  13  697.73   37.60
 -13  31 -11  621.84   38.00
  31  11  13  652.13   37.70
 -13  31  13  415.66   31.00
  31 -13  13  551.84   30.10
 -13  31 -13  560.04   31.20
  31  13  13  527.55   30.50
 -15  31   1  102.59   10.20
  31  -1  15  102.29   10.50
  31   1  15   96.29   10.10
 -15  31  -1   99.99   10.20
  31  -3  15    8.00    5.00
 -15  31   3   15.50    5.30
  31   3  15   20.80    5.90
 -15  31  -3    7.60    5.10
 -15  31   5  136.09   12.10
  31  -5  15  147.09   11.80
 -15  31  -5  126.59   12.20
  31   5  15  147.89   12.30
 -15  31   7   37.80    6.30
  31  -7  15   49.60    6.60
  31   7  15   42.80    6.60
 -15  31  -7   36.80    6.70
  31  -9  15   24.00    6.30
 -15  31   9   33.60    6.40
  15  31  -9   22.30    7.10
 -15  31  -9   25.70    6.90
  31   9  15   35.50    7.10
  15  31 -11  145.69   12.40
  31 -11  15  143.29   12.40
  31  11  15  152.48   13.50
 -15  31 -11  145.69   13.90
 -17  31   1   20.90    5.80
  31  -1  17   21.60    5.70
 -17  31  -1   17.50    5.60
  31   1  17   27.80    6.30
  31  -3  17   45.60    7.10
 -17  31   3   33.20    6.20
  31   3  17   39.10    6.50
 -17  31  -3   45.10    7.00
 -17  31   5  162.18   13.40
  31  -5  17  170.18   13.50
 -17  31  -5  164.18   13.90
  31   5  17  188.08   13.90
  31  -7  17   96.99   10.60
 -17  31   7   84.29    9.50
  31   7  17  101.49   10.70
 -17  31  -7   67.09    8.60
  17  31  -9    2.20    7.30
  31  -9  17   -1.60    5.30
  31   9  17    4.20    6.00
 -17  31  -9    8.70    6.60
 -19  31   1  169.48   15.30
  31  -1  19  162.38   13.70
 -19  31  -1  181.78   14.10
  31   1  19  199.38   14.20
  31  -3  19   25.10    6.60
  31   3  19   19.20    6.00
 -19  31  -3   15.30    6.20
  31  -5  19    1.60    5.50
 -19  31  -5   -0.40    6.10
  31   5  19   -0.40    5.80
   0  32   0 1931.91  101.69
  32   0   0 1911.41  101.79
  32  -2   0 1004.20   62.89
  32   2   0 1283.67   63.59
   0  32  -2 1237.38   63.29
  32   4   0  270.37   20.10
   0  32  -4  357.16   20.20
  32  -4   0  336.87   20.10
  32   6   0  257.77   17.40
  32  -6   0  253.97   16.60
   0  32  -6  243.68   16.80
   0  32  -8  753.12   44.10
  32  -8   0  805.62   43.90
  32   8   0  831.52   44.40
  32  10   0 1455.55   76.69
 -10   0  32 1399.66   75.99
 -12   0  32 1598.44   82.49
   0  32 -12 1449.55   82.89
  32  12   0 1610.54   83.29
  32  14   0  485.75   28.50
   0  32 -14  468.65   28.20
 -14   0  32  461.65   27.30
  32  16   0  148.89   14.50
 -16   0  32  138.59   12.30
  16   0  32  151.58   13.40
  32  18   0  265.47   19.80
  18   0  32  252.57   18.70
  32   0  -2 1225.18   64.49
  32   0   2 1176.58   64.39
  -2  32   0 1182.68   64.19
  -2  32   2  671.53   38.70
   2  32  -2  671.23   38.70
  32   2  -2  726.93   39.10
  32  -2   2  706.73   38.90
  -2  32  -2  714.23   38.90
  32  -2  -2  698.43   39.00
  32  -4   2  144.59   11.80
   2  32  -4  158.58   12.20
  32   4  -2  145.79   12.30
  32   4   2  148.39   12.50
  -2  32  -4  145.49   12.00
  32  -4  -2  151.98   12.00
   2  32  -6   94.59   10.30
  32   6  -2  103.49   10.90
  32  -6   2  100.59   10.00
  32  -6  -2  113.99   10.30
  32   6   2  106.39   11.00
  -2  32  -6   93.99   10.30
   2  32  -8  436.96   26.30
  32   8  -2  452.25   26.70
  32  -8   2  434.26   25.90
  -2  32  -8  446.46   26.40
  32   8   2  440.56   26.30
  32 -10   2  951.60   52.39
  32  10  -2 1004.80   53.09
   2  32 -10  976.10   52.69
  32  10   2  941.01   52.79
 -10  -2  32  937.91   51.59
  -2  32 -10  976.90   52.79
  12  -2  32 1014.30   57.39
  32  12  -2 1180.48   58.09
   2  32 -12  958.50   57.29
 -12   2  32  968.50   56.99
  32  12   2 1038.40   57.59
 -12  -2  32 1120.49   55.99
  -2  32 -12 1108.89   57.69
  32  14  -2  187.08   15.10
  14  -2  32  180.78   14.80
   2  32 -14  175.98   14.70
 -14   2  32  168.28   14.60
  -2  32 -14  188.38   15.00
  32  14   2  199.08   15.30
 -16   2  32   19.20    7.50
  16  -2  32   14.40    6.50
  32  16  -2   21.90    7.70
  32  16   2   12.80    6.80
  32   0  -4  357.86   20.10
  32   0   4  257.57   19.40
  -4  32   0  330.07   19.50
  -4  32   2  152.68   11.90
  32  -2   4  148.09   12.20
  32   2  -4  152.18   12.50
  32  -2  -4  165.08   12.60
  -4  32  -2  146.09   11.90
  32   2   4  153.68   12.50
   4  32  -4    2.60    4.50
  32   4  -4   -0.40    4.80
  32  -4   4   -0.30    4.30
  -4  32   4   -1.10    4.30
  32   4   4   -5.70    4.60
  -4  32  -4    0.60    4.80
  32  -6   4   12.20    4.90
  32   6  -4   11.60    5.60
   4  32  -6   10.40    5.10
  32   6   4    6.80    4.90
  -4  32  -6   12.90    4.90
   4  32  -8   40.10    6.80
  32   8  -4   24.00    6.10
  32  -8   4   29.10    5.80
  32   8   4   32.00    6.50
  -8  -4  32   24.70    4.20
  -4  32  -8   22.30    6.10
  32  10  -4  284.67   19.00
  32 -10   4  276.87   18.00
   4  32 -10  262.47   18.40
  32  10   4  262.97   18.50
  -4  32 -10  312.27   18.70
 -12   4  32  336.17   22.90
  32  12  -4  387.86   23.80
   4  32 -12  370.96   23.00
  32  12   4  375.66   23.30
  -4  32 -12  397.26   23.60
   4  32 -14    0.30    5.90
 -14   4  32    7.00    6.20
  32  14  -4    1.20    6.70
  14  -4  32    1.90    6.20
  -4  32 -14   -1.30    6.30
  32  14   4   -0.10    5.90
 -16   4  32  105.19   12.50
  16  -4  32   68.29    9.30
  32  16  -4   80.99   10.60
  32  16   4   82.59    9.90
  32   0  -6  246.78   16.80
  32   0   6  261.67   16.80
  -6  32   0  243.28   16.40
  32   2  -6  110.99   10.50
  -6  32   2  101.59    9.80
  32  -2   6   94.19    9.80
  32   2   6   94.89   10.10
  -6  32  -2   88.19    9.90
  -6  32   4   12.30    5.10
  32   4  -6   10.00    5.10
  32  -4   6    8.40    5.10
  -6  32  -4    8.60    4.80
  32   4   6   12.30    5.60
  32   6  -6   82.79    9.70
  32  -6   6   74.89    9.10
  -6  32   6   54.79    6.80
   6  32  -6   51.19    7.10
  -6  32  -6   54.29    7.00
  32   6   6   84.79    8.40
  32  -8   6   -1.60    4.80
   6  32  -8   -2.50    5.00
  32   8  -6    1.20    5.30
  32   8   6    0.80    5.00
  -6  32  -8   -1.00    5.10
   6  32 -10  219.48   15.50
  32  10  -6  195.18   15.20
  32 -10   6  194.18   14.50
  32  10   6  216.18   15.30
  -6  32 -10  187.98   15.10
  32 -12   6  297.37   19.00
  32  12  -6  292.47   19.90
   6  32 -12  265.77   19.20
  32  12   6  308.97   19.90
  -6  32 -12  321.67   20.00
  32  14  -6   -3.60    6.50
 -14   6  32    2.90    6.20
  14  -6  32   -0.40    5.80
   6  32 -14   -3.10    6.00
  32  14   6    2.80    6.30
  -6  32 -14   -1.20    6.50
  16  -6  32   60.19    9.00
 -16   6  32   91.89   10.90
  32  16  -6  103.59   11.10
  32  16   6   97.19   10.40
  -8  32   0  720.03   41.40
  32   0   8  781.12   41.60
  32  -2   8  424.96   25.50
  -8  32   2  432.26   25.50
  -8  32  -2  456.15   25.80
  32   2   8  423.26   25.50
  32  -4   8   26.90    5.80
  -8  32   4   29.40    5.90
  32   4   8   27.30    6.00
  -8  32  -4   23.70    6.10
  -8  32   6    0.30    4.60
  32   6  -8    0.60    5.20
  32  -6   8   -1.30    4.70
   8  32  -6    0.00    5.10
  32   6   8   -1.60    4.80
  -8  32  -6   -1.40    4.80
  32   8  -8   98.99    9.30
  -8  32   8   72.69    8.80
  32  -8   8   78.39    7.90
   8  32  -8   52.59    7.60
  32   8   8   51.59    7.30
  -8  32  -8   82.59   10.00
  32  10  -8  448.26   27.20
  -8  32  10  435.56   26.40
  32 -10   8  441.16   26.50
  -8  32 -10  484.05   27.30
  32  10   8  456.75   27.10
  32  12  -8  552.74   31.60
  32 -12   8  513.65   30.70
   8  32 -12  518.05   31.00
  32  12   8  567.64   31.60
 -14   8  32   55.59    8.50
  32 -14   8   65.49    7.80
  32  14  -8   82.39    9.50
  -8  32 -14   79.89    9.60
  32  14   8   41.50    7.60
 -16   8  32   -2.40    7.10
  32  16  -8    4.70    7.40
  16  -8  32    0.00    6.00
  32  16   8    0.10    6.60
  32   0  10 1432.16   74.59
 -10  32   0 1356.86   74.59
 -10  32   2  920.41   49.99
  32  -2  10  944.31   50.09
  32   2  10  896.21   49.99
 -10  32  -2  899.81   50.19
  32  -4  10  209.38   16.70
 -10  32   4  287.17   17.10
  32   4  10  272.67   17.30
 -10  32  -4  262.47   17.40
  32  -6  10  205.28   14.60
 -10  32   6  208.48   14.50
 -10  32  -6  196.08   14.90
  32   6  10  210.88   15.00
  10  32  -8  451.75   26.60
  32  -8  10  449.95   26.20
 -10  32   8  458.55   26.20
 -10  32  -8  435.96   26.60
  32   8  10  423.16   26.30
  10  32 -10  994.40   54.79
 -10  32  10 1004.70   54.49
  32 -10  10 1016.20   54.49
  32  10  10  963.40   54.79
 -10  32 -10 1032.60   54.99
 -10  32  12 1040.70   55.99
  32 -12  10 1022.00   55.89
  10  32 -12 1001.10   55.79
  32  12  10 1004.60   56.29
 -10  32 -12 1085.39   56.79
 -14  10  32  329.37   21.80
  32 -14  10  305.57   20.30
 -10  32 -14  325.67   22.20
  32  14  10  349.07   21.70
  32   0  12 1520.95   76.19
 -12  32   0 1322.67   76.09
 -12  32   2 1110.39   56.29
  32  -2  12 1015.70   55.99
 -12  32  -2 1028.20   56.09
  32   2  12  978.10   55.89
 -12  32   4  370.86   22.20
  32  -4  12  372.96   22.30
  32   4  12  363.56   22.20
 -12  32  -4  345.97   22.20
 -12  32   6  276.97   18.60
  32  -6  12  293.87   18.90
 -12  32  -6  314.77   19.20
  32   6  12  276.67   18.60
 -12  32   8  552.74   31.50
  12  32  -8  561.84   32.10
  32  -8  12  527.55   31.50
 -12  32  -8  572.74   32.10
  32   8  12  532.85   31.80
 -12  32  10 1024.50   55.39
  12  32 -10 1005.30   55.69
  32 -10  12 1027.20   55.39
 -12  32 -10 1037.30   55.99
  32  10  12  997.80   55.59
  32 -12  12 1017.60   55.09
  12  32 -12  992.50   54.59
  32  12  12 1030.20   55.59
 -14  32   0  461.85   26.30
  32   0  14  422.66   25.90
  32  -2  14  171.98   13.80
 -14  32   2  197.78   14.10
  32   2  14  183.48   13.80
 -14  32  -2  162.18   13.60
 -14  32   4    0.40    5.20
  32  -4  14    3.20    5.10
   4 -14  32    1.30    5.70
 -14  32  -4   -1.40    5.20
  32   4  14   -0.20    5.20
   6 -14  32   -1.40    5.80
  32  -6  14   12.70    5.10
 -14  32   6   -6.50    5.10
 -14  32  -6   -4.30    5.60
  32   6  14   -2.10    5.20
 -14  32   8   48.10    7.00
   8 -14  32   90.59    9.60
  14  32  -8   46.10    8.30
  32  -8  14   71.69    7.80
 -14  32  -8   58.69    7.90
  32 -10  14  333.27   20.50
  14  32 -10  284.57   21.20
 -14  32 -10  341.37   21.40
  32  10  14  308.47   20.70
 -16  32   0  122.49   11.60
  32   0  16  135.39   12.00
 -16  32   2   12.30    5.60
  32  -2  16   20.20    5.90
  32   2  16   15.00    5.50
 -16  32  -2   21.20    6.40
  32  -4  16   70.49    8.00
 -16  32   4   56.09    7.60
  32   4  16   48.90    7.10
 -16  32  -4   48.20    7.50
  32  -6  16   84.59   10.70
  32   6  16   90.39    9.60
 -16  32  -6  106.69   10.40
   8 -16  32    1.40    7.20
  16  32  -8   -3.10    7.40
  32  -8  16   -1.10    5.70
  32   8  16   -0.50    5.40
 -16  32  -8    4.90    6.50
  32   0  18  220.98   15.70
  33  -1   1 1218.38   67.59
  -1  33   1 1235.08   67.49
   1  33  -1 1271.37   67.59
  33   1  -1 1315.87   67.79
  -1  33  -1 1186.28   67.49
  33  -1  -1 1303.87   67.79
  33   1   1 1264.77   67.69
  33  -3   1  442.46   26.30
  33   3  -1  470.95   26.80
   1  33  -3  434.66   26.40
  -1  33  -3  450.45   26.40
  33   3   1  447.76   26.70
  33  -3  -1  432.76   26.40
  33  -5   1  155.28   12.60
  33   5  -1  160.38   13.30
   1  33  -5  160.18   12.90
  33  -5  -1  140.39   12.40
  33   5   1  163.88   13.70
  -1  33  -5  168.88   13.00
  33   7  -1  270.57   20.00
   1  33  -7  339.77   20.20
  33  -7   1  337.37   19.80
  -1  33  -7  251.47   19.60
  33   7   1  348.27   20.50
   1  33  -9  974.00   53.79
  33   9  -1  935.91   53.99
  33   9   1 1011.60   53.99
  -1  33  -9 1004.90   53.89
   1  33 -11 1287.47   72.29
 -11   1  33 1347.87   71.99
  33  11   1 1426.16   72.59
 -11  -1  33 1386.46   71.49
  -1  33 -11 1259.67   72.29
   1  33 -13  482.55   29.60
 -13   1  33  474.55   29.20
  33  13  -1  516.75   29.90
  33  13   1  514.95   29.90
  -1  33 -13  481.15   29.70
 -13  -1  33  494.75   28.00
  15  -1  33  173.98   14.30
   1  33 -15  154.88   15.10
 -15   1  33  146.69   14.60
  -1  33 -15  144.09   15.10
  33  15   1  134.89   14.70
  33   1  -3  472.25   27.00
  -3  33   1  437.16   26.50
  33  -1   3  443.06   26.70
  33   1   3  468.15   27.00
  -3  33  -1  448.96   26.70
  33  -1  -3  456.05   26.90
  -3  33   3  102.59   10.30
   3  33  -3  109.19   10.70
  33   3  -3  114.59   11.20
  33  -3   3  100.29   10.80
  -3  33  -3  111.09   10.80
  33   3   3  107.39   11.30
  33  -3  -3  101.89   10.70
   3  33  -5   20.70    6.00
  33   5  -3   12.30    5.50
  33  -5   3   11.80    5.10
  -3  33  -5   15.30    6.00
  33   5   3   13.60    5.70
   3  33  -7   40.00    7.00
  33  -7   3   58.19    7.30
  33   7  -3   56.99    7.90
  33   7   3   42.80    7.00
  -3  33  -7   86.09    9.00
  33  -9   3  353.46   22.80
   3  33  -9  386.16   23.80
  33   9  -3  389.56   23.90
  -3  33  -9  388.46   23.50
  33   9   3  373.16   23.50
  -9  -3  33  374.36   21.60
 -11   3  33  663.93   39.30
  33  11  -3  707.53   40.00
   3  33 -11  720.93   39.60
  -3  33 -11  649.24   39.50
  33  11   3  748.33   39.80
 -13   3  33  136.99   14.10
   3  33 -13  160.28   14.30
  13  -3  33  150.38   14.10
  33  13  -3  160.88   15.30
  -3  33 -13  171.38   14.60
  33  13   3  148.49   14.40
  33  15  -3   -0.30    7.50
  15  -3  33    4.70    6.80
  33  15   3   -1.70    7.20
  -3  33 -15    2.50    7.50
  33   1  -5  146.89   12.80
  -5  33   1  137.89   12.00
  33  -1   5  149.79   12.60
  33   1   5  159.88   12.60
  33  -1  -5  166.48   12.90
  -5  33  -1  139.49   12.20
  33   3  -5   16.70    6.00
  -5  33   3   15.30    5.70
   5  33  -3   16.50    5.80
  33  -3   5    9.20    5.10
  -5  33  -3    6.60    5.00
  33   3   5    7.50    5.30
  33   5  -5   13.20    6.10
  -5  33   5   12.20    5.10
   5  33  -5   13.80    5.90
  33  -5   5   18.40    5.90
  -5  33  -5   18.00    5.60
  33   5   5   12.80    5.60
   5  33  -7    3.50    5.70
  33  -7   5    5.40    5.00
  33   7  -5    3.60    5.80
  -7  -5  33    0.20    3.00
  -7  -5  33    1.60    3.00
  -5  33  -7   -0.20    5.20
  33   7   5    4.60    5.50
  33   9  -5  113.09   11.90
   5  33  -9  113.59   11.90
  33  -9   5  104.09   10.60
  33   9   5  110.19   11.70
  -5  33  -9  113.49   11.80
  33  11  -5  384.86   24.60
   5  33 -11  367.66   24.20
  33 -11   5  371.46   23.40
  33  11   5  376.36   24.20
  -5  33 -11  447.26   24.70
   5  33 -13   12.50    6.90
 -13   5  33   15.20    7.00
  33  13  -5   31.20    7.90
  33  13   5   12.30    6.40
  -5  33 -13   17.60    7.10
 -15   5  33   29.10    8.40
  15  -5  33    3.50    6.50
  33  15   5   60.59    8.70
  -7  33   1  326.57   20.20
  33  -1   7  311.87   20.40
  33   1   7  333.87   20.40
  -7  33  -1  324.67   20.40
  33   3  -7   71.19    8.60
  33  -3   7   61.69    7.50
  -7  33   3   63.89    7.80
  33   3   7   55.19    7.60
  -7  33  -3   71.59    8.20
   7  33  -5    1.70    5.20
  33  -5   7    3.80    5.20
  33   5  -7    0.90    5.70
  -7  33   5    0.60    5.00
  -7  33  -5    2.60    5.60
  33   5   7   -1.70    5.10
  33  -7   7    0.60    4.80
  -7  33   7    2.80    5.10
   7  33  -7    0.70    5.60
  33   7  -7   -1.20    5.70
  33   7   7   -0.60    5.30
  -7  33  -7   -2.70    5.50
  -7  33   9  150.08   12.40
  33  -9   7  154.58   12.40
   7  33  -9  159.88   14.10
  33   9  -7  176.18   14.20
  33   9   7  161.88   13.60
  -7  33  -9  152.58   13.80
  33  11  -7  516.15   28.70
  33 -11   7  446.46   27.30
   7  33 -11  452.15   28.20
  33  11   7  465.35   28.20
  33 -13   7   91.79   10.90
 -13   7  33  118.09   11.60
  33  13  -7  121.79   11.80
  -7  33 -13  122.99   12.00
  -9  33   1  923.91   50.89
  33  -1   9  957.70   50.99
  -9  33  -1  887.31   50.89
  33   1   9  951.30   50.99
  -9  33   3  354.36   22.80
  -9  33  -3  406.46   23.60
  33   3   9  374.26   23.10
  33  -5   9   90.39   10.30
  -9  33   5  105.89   10.70
  33   5   9  112.79   11.10
  -9  33  -5  107.79   11.30
  33  -7   9  160.88   13.10
   9  33  -7  153.38   13.90
  -9  33   7  160.98   13.00
  33   7   9  167.28   13.60
  -9  33  -7  159.68   13.70
  -9  33   9  570.14   33.10
   9  33  -9  592.94   33.90
  33  -9   9  592.24   33.20
  33   9  -9  559.74   33.70
  33   9   9  578.94   33.50
  -9  33  -9  590.54   33.80
  33  11  -9 1008.30   54.39
  33 -11   9  987.70   53.59
   9  33 -11  929.01   53.99
  -9  33  11  963.20   53.49
  33  11   9  999.60   54.09
  -9  33 -11 1011.70   54.39
  33  13  -9  408.66   25.10
 -13   9  33  361.16   24.30
  33 -13   9  352.06   23.30
  -9  33 -13  388.96   25.00
  33  13   9  396.36   24.40
  33  -1  11 1352.36   73.59
 -11  33   1 1242.58   73.49
   1 -11  33 1388.26   72.99
  33   1  11 1398.66   73.69
 -11  33  -1 1489.45   74.09
  33  -3  11  761.12   39.20
 -11  33   3  707.93   38.90
   3 -11  33  678.43   38.80
 -11  33  -3  653.73   38.90
  33   3  11  675.83   39.00
  33  -5  11  348.17   22.50
 -11  33   5  377.36   22.60
 -11  33  -5  377.96   23.00
  33   5  11  369.96   22.90
  33  -7  11  475.25   27.60
 -11  33   7  458.15   27.40
  11  33  -7  480.15   28.40
  33   7  11  426.56   27.50
 -11  33  -7  496.85   28.10
  11  33  -9 1004.80   54.89
 -11  33   9  956.80   54.29
  33  -9  11  990.70   54.39
  33   9  11  975.20   54.59
 -11  33  -9 1057.69   55.09
  11  33 -11 1251.27   70.59
  33 -11  11 1316.37   70.29
 -11  33 -11 1336.47   70.99
  33  11  11 1326.07   70.79
 -13  33   1  509.05   28.40
  33  -1  13  480.25   28.10
  33   1  13  468.45   28.10
 -13  33  -1  460.95   28.20
   3 -13  33  142.29   12.80
  33  -3  13  140.49   12.60
 -13  33   3  153.98   12.50
 -13  33  -3  146.89   12.70
  33   3  13  142.19   12.50
 -13  33   5   13.80    5.80
  33  -5  13   28.30    5.90
   5 -13  33   20.10    7.00
  33   5  13   14.50    5.80
 -13  33  -5   34.60    7.30
  33  -7  13   84.79   10.60
 -13  33   7   90.39   10.70
  13  33  -7  112.69   11.20
 -13  33  -7  115.69   11.10
  33   7  13   95.29   11.50
  33  -9  13  356.36   22.90
   9 -13  33  386.66   24.60
  13  33  -9  374.96   24.50
  33   9  13  361.36   23.50
 -13  33  -9  381.76   24.00
 -15  33   1  134.39   12.80
  33  -1  15  147.49   12.60
 -15  33  -1  130.79   12.70
  33   1  15  140.99   12.50
 -15  33   3   -2.50    5.50
  33  -3  15   -2.20    5.60
  33   3  15    1.10    5.40
 -15  33  -3   -1.20    6.00
  33  -5  15   52.89    7.50
  33   5  15   55.39    7.80
 -15  33  -5   72.49    9.30
   0  34   0 1023.90   57.09
  34   0   0 1078.59   57.29
  34  -2   0  535.65   30.80
  34   2   0  526.85   30.90
   0  34  -2  528.55   30.80
   0  34  -4  125.09   11.90
  34   4   0  116.39   12.00
  34  -4   0  109.09   11.30
  34   6   0   95.89   11.60
  34  -6   0   88.59   10.40
   0  34  -6   90.09   11.10
   0  34  -8  405.16   25.80
  34   8   0  429.16   26.20
   0  34 -10  929.71   53.89
 -10   0  34  974.00   53.49
  34  10   0 1037.10   54.29
 -12   0  34  542.15   33.10
  34  12   0  533.25   33.80
   0  34 -12  647.94   34.20
  -2  34   0  561.64   31.90
  34   0   2  552.64   31.90
  34   0  -2  541.35   32.00
   2  34  -2  229.28   16.20
  -2  34   2  236.78   15.90
  34   2  -2  247.88   16.60
  34  -2   2  210.18   16.10
  34   2   2  237.38   16.50
  34  -2  -2  225.48   16.30
  -2  34  -2  211.78   16.10
  34   4  -2   19.90    6.10
   2  34  -4   31.00    6.50
  34  -4   2   31.20    6.60
  34  -4  -2   19.30    6.00
  -2  34  -4   38.60    6.90
  34   4   2   45.40    7.40
  34  -6   2   11.30    5.40
   2  34  -6   11.60    5.90
  34   6  -2   18.30    6.70
  -2  34  -6   23.40    6.30
  34   6   2   15.10    6.20
   2  34  -8  194.08   15.60
  34   8  -2  210.48   15.90
  34  -8   2  188.28   14.60
  -2  34  -8  183.08   15.50
  34   8   2  205.98   15.90
  34  10  -2  568.04   38.30
   2  34 -10  700.13   38.60
 -10  -2  34  684.53   37.00
  -2  34 -10  672.43   38.50
  34  10   2  724.43   38.60
 -12   2  34  331.17   21.60
   2  34 -12  295.47   21.60
  -2  34 -12  298.87   21.70
  34  12   2  340.17   21.70
  34   0  -4  119.39   11.90
  34   0   4  109.19   11.50
  -4  34   0  115.09   11.10
  34   2  -4   27.40    6.40
   4  34  -2   42.50    7.00
  -4  34   2   21.60    6.00
  34  -2   4   41.10    7.30
  -4  34  -2   46.00    7.40
  34  -2  -4   22.70    6.10
  34   2   4   28.60    6.20
  34   4  -4    5.20    6.10
  -4  34   4    3.10    4.80
  34  -4   4    1.10    5.20
   4  34  -4    0.60    5.50
  34   4   4    3.80    6.10
  -4  34  -4    1.00    5.60
  -4  -4  34    1.90    6.40
  -4  34   6    7.40    5.40
  34  -6   4   12.40    5.40
   4  34  -6    1.70    6.00
  34   6  -4   11.90    6.60
  34   6   4    5.70    6.10
  -4  34  -6   15.20    6.50
  -6  -4  34   13.30    5.10
  34  -8   4   19.50    5.80
  34   8  -4   20.50    7.00
   4  34  -8   14.80    7.00
  34   8   4   22.60    7.10
  -8  -4  34    9.90    3.50
  -4  34  -8   15.50    6.50
  34  10  -4  277.57   20.10
   4  34 -10  275.87   20.00
  34 -10   4  287.67   18.80
  34  10   4  294.37   19.80
  -4  34 -10  279.77   19.90
   4  34 -12   53.39    8.90
 -12   4  34   58.49    8.90
  -6  34   0   86.39   10.40
  34   0   6   84.19   10.00
  -6  34   2   14.60    5.60
  34   2  -6    8.70    5.70
  34  -2   6   15.80    5.70
  -2  -6  34   16.80    5.60
  -6  34  -2   16.70    5.90
  34   2   6   16.10    6.00
  34  -4   6   19.60    6.30
  34   4  -6    9.10    6.00
  -6  34   4    6.60    5.20
   6  34  -4    8.90    5.90
  -6  34  -4   24.10    6.00
  34   4   6    8.50    5.80
  -4  -6  34    9.00    4.80
  -6  34   6   95.29    9.10
   6  34  -6   74.39    9.10
  34  -6   6   55.49    7.50
  34   6  -6   61.69    8.70
  34   6   6   83.99    9.10
  -6  34  -6   96.29    9.90
   6  34  -8   -6.60    6.30
  34  -8   6   -1.30    5.30
  34   8  -6    0.20    6.50
  -6  34   8   -0.70    5.10
  34   8   6    0.90    5.90
  -6  34  -8   -4.50    5.50
   6  34 -10  151.78   15.20
  34 -10   6  167.28   13.50
  34  10  -6  180.88   15.10
  -6  34 -10  145.49   14.80
  34  10   6  172.38   14.60
   6  34 -12   31.40    8.40
  34  12  -6   55.29    9.00
  34 -12   6   49.40    7.20
 -12   6  34   42.80    8.40
  -6  34 -12   71.09    9.70
  34  12   6   29.90    7.60
   0  -8  34  357.16   22.40
  -8  34   0  364.96   22.70
  34   0   8  386.56   22.90
   2  -8  34  185.88   14.70
  -8  34   2  179.48   14.00
  34  -2   8  194.78   14.40
  34   2   8  170.58   13.80
  -8  34  -2  182.28   14.30
  -2  -8  34  167.88   12.90
  34  -4   8   14.20    5.70
  -8  34   4   20.80    6.20
   8  34  -4   22.40    6.90
  34   4   8   14.50    5.90
  -8  34  -4   13.60    6.30
   8  34  -6   -0.20    6.30
  34  -6   8    2.50    5.60
  -8  34   6   -2.50    5.20
  -8  34  -6   -0.70    5.60
  34   6   8   -0.10    5.90
  34  -8   8   79.79    9.80
  -8  34   8   91.89    9.40
   8  34  -8  100.19   10.60
  34   8   8   66.59    8.80
  -8  34  -8   75.79    9.40
  34 -10   8  472.05   27.40
  -8  34  10  430.46   28.30
  34  10  -8  477.55   28.70
   8  34 -10  478.95   28.90
  34  10   8  447.16   28.00
 -10  34   0 1056.69   55.19
  34   0  10  958.60   54.79
   0 -10  34 1004.20   54.09
 -10  34   2  605.24   36.50
  34  -2  10  627.14   36.70
   2 -10  34  710.33   36.90
 -10  34  -2  638.14   37.00
  34   2  10  666.33   36.90
 -10  34   4  264.27   18.30
   4 -10  34  284.17   19.20
  34  -4  10  279.87   18.50
  34   4  10  260.87   18.30
 -10  34  -4  288.27   18.90
 -10  34   6  162.18   13.10
  34  -6  10  157.18   13.20
   6 -10  34  142.19   14.70
  10  34  -6  155.18   15.00
 -10  34  -6  180.48   14.30
  34   6  10  165.18   14.00
  10  34  -8  476.95   28.90
  34  -8  10  474.95   27.60
 -10  34   8  451.55   27.60
 -10  34  -8  468.65   28.40
  34   8  10  450.25   27.80
 -12  34   0  486.05   29.40
  34   0  12  510.45   29.20
  34  -2  12  336.47   21.40
   2 -12  34  331.57   21.20
 -12  34   2  320.07   21.50
  34   2  12  335.97   21.30
 -12  34  -2  352.66   21.80
 -12  34   4   58.19    7.90
   4 -12  34   56.49    8.60
  34  -4  12   94.39   10.30
  34   4  12   95.79   11.10
  34  -6  12   56.19    7.80
  12  34  -6   53.29    9.00
   6 -12  34   51.59    9.10
 -12  34  -6   65.09    9.00
  34   6  12   35.90    7.20
  35   1  -1  298.87   19.40
  -1  35   1  269.07   18.80
   1  35  -1  255.87   18.90
  35  -1   1  296.77   19.20
  35  -1  -1  305.17   19.50
   1  35   1  281.97   18.90
  -1  35  -1  265.97   18.90
  35   1   1  293.77   19.20
  35   3  -1   43.60    7.80
  35  -3   1   52.69    8.10
  -1  35   3   58.19    7.80
   1  35  -3   54.29    8.10
  35  -3  -1   43.40    7.40
  -1  35  -3   45.90    7.70
  35   3   1   33.70    7.10
   1  35  -5    6.90    6.30
  35  -5   1    6.80    6.10
  35   5  -1    0.50    6.10
  35   5   1    6.90    6.60
  -1  35  -5    2.20    6.30
  35  -5  -1    3.20    5.60
  35   7  -1   -0.10    6.50
  35  -7   1    8.40    6.00
  35   7   1   18.20    7.40
  -1  35  -7    5.80    7.30
  35   9  -1  276.37   20.40
  -9  -1  35  277.07   19.50
  -1  35  -9  281.57   20.20
  35   9   1  300.37   20.60
 -11   1  35  277.87   21.30
   1  35 -11  278.37   21.70
  35  11  -1  340.47   22.30
  35  11   1  324.97   22.00
  -1  35 -11  286.77   21.80
 -11  -1  35  326.37   20.40
  -3  35   1   37.00    6.80
  35  -1   3   55.99    8.00
  35   1  -3   64.99    8.70
   3  35  -1   25.60    6.40
  -3  35  -1   49.10    7.70
  35  -1  -3   31.00    6.90
  35   1   3   60.99    8.40
   3  35  -3   -2.20    6.10
  -3  35   3    2.80    5.40
  35  -3   3    2.30    5.90
  35   3  -3    1.40    6.00
  35   3   3   -0.10    5.90
  -3  35  -3   -3.60    5.70
  35  -3  -3    3.10    6.20
  35   5  -3   33.40    7.10
  35  -5   3   61.59    7.90
   3  35  -5   54.29    8.20
  -3  35   5   39.70    6.70
  -3  35  -5   45.80    7.40
  35   5   3   50.89    8.20
   3  35  -7    8.50    7.00
  35   7  -3   11.10    6.50
  35  -7   3   12.60    5.90
  -3  35  -7   23.00    7.50
  -7  -3  35    7.90    5.90
  35   7   3   12.70    6.70
  35  -9   3   63.79    8.10
  35   9  -3   90.89   10.20
   3  35  -9   70.59    9.70
  -3  35  -9   46.20    8.30
  35   9   3   56.09    8.50
   1  -5  35    7.10    6.30
  35  -1   5    2.80    5.50
  -5  35   1    2.30    5.90
  35   1  -5    7.50    6.30
  35   1   5    7.60    6.00
  -5  35  -1    1.10    6.10
  -1  -5  35    5.50    6.20
  35   3  -5   42.10    7.80
  -5  35   3   51.19    7.40
  35  -3   5   43.30    6.90
   5  35  -3   40.60    7.10
  35   3   5   41.50    7.30
  -3  -5  35   49.20    7.30
  -5  35  -3   29.80    6.90
  35   5  -5  225.68   17.60
  35  -5   5  222.58   16.20
  -5  35   5  226.08   16.40
   5  35  -5  203.08   17.20
  -5  -5  35  221.28   15.30
  -5  35  -5  253.07   17.80
  35   5   5  249.08   17.40
   5  35  -7  166.48   15.60
  -5  35   7  165.28   13.90
  35   7  -5  178.08   15.50
  35  -7   5  188.88   14.40
  -5  35  -7  163.48   15.20
  35   7   5  174.48   15.10
  -5  35   9    1.00    5.60
  35   9  -5    0.40    6.90
  35  -9   5   -3.30    5.30
   5  35  -9   -1.50    7.90
  35   9   5   -2.50    6.40
  -5  35  -9   -1.30    6.90
  -7  35   1    5.00    5.60
   1  -7  35    7.00    6.60
  35  -1   7    3.30    5.90
  35   1   7   10.30    6.10
  -1  -7  35    1.60    6.30
  -7  35  -1    1.00    6.00
   3  -7  35   18.50    7.10
  35  -3   7   12.90    6.10
   7  35  -3   19.90    7.10
  -7  35   3   15.30    6.00
  35   3   7    7.50    6.00
  -3  -7  35   27.40    5.70
  -7  35  -3   26.80    6.50
   5  -7  35  177.38   15.30
   7  35  -5  171.68   15.40
  -7  35   5  162.58   13.80
  35  -5   7  179.28   14.10
  35   5  -7  164.88   15.30
  35   5   7  163.18   14.70
  -7  35  -5  163.28   14.80
   7  35  -7  146.69   15.00
  -7  35   7  133.49   12.70
  35  -7   7  141.09   13.00
  35   7  -7  149.79   14.80
  -7  35  -7  134.39   14.00
  35   7   7  133.29   13.40
   1  -9  35  258.27   18.00
  -9  35   1  270.47   17.80
  35  -1   9  208.88   17.20
  -1  -9  35  270.07   16.60
  -9  35  -1  215.18   17.30
  35   1   9  281.07   18.10
  35  -3   9   87.69    9.40
   3  -9  35   76.49    9.70
  -9  35   3   77.39    9.00
  -9  35  -3   53.89    8.40
  35   3   9   92.99    9.90
  35  -5   9   -1.70    5.60
   9  35  -5   -0.70    7.00
   5  -9  35   -3.70    7.20
  -9  35   5    3.70    5.60
  35   5   9    0.40    5.90
  -9  35  -5   -0.50    6.00
  35  -1  11  310.77   19.40
   1 -11  35  295.77   19.00
 -11  35   1  240.18   18.90
  35   1  11  281.67   19.20
 -11  35  -1  282.17   19.40
   0  36   0  116.39   12.60
  36   0   0  113.39   12.60
  36  -2   0   36.00    7.40
  36   2   0   42.40    7.90
   0  36   2   33.50    7.10
   0  36  -2   51.59    8.20
  36  -4   0   65.29    8.90
  36   4   0   58.69    9.00
   0  36  -4   31.60    7.40
  36   6   0  113.69   11.80
   0  36  -6  133.79   14.10
  36  -6   0  114.69   13.00
   2  36   0   38.00    7.60
  36   0   2   45.10    8.00
  36   0  -2   58.59    8.60
  -2  36   0   50.49    8.20
  36  -2   2   15.80    6.90
   2  36  -2   13.20    7.10
  -2  36   2   13.60    6.20
  36   2  -2    7.40    6.40
  36  -2  -2   10.50    6.60
  -2  36  -2    9.90    6.50
  36   2   2    6.40    6.40
  36   4  -2   50.29    8.30
  36  -4   2   71.39    9.00
   2  36  -4   90.59   10.10
  -2  36   4   42.90    7.50
  -2  36  -4   86.39   10.00
  36   4   2   65.99    9.10
  36  -6   2  137.99   13.50
  36   6  -2  130.49   14.80
   2  36  -6  136.09   14.90
  36   6   2  157.48   14.70
  -2  36  -6  162.88   15.50
  -4  36   0   42.80    7.60
  36   0  -4   25.30    7.30
  36   0   4   39.70    7.40
   0  -4  36   41.90    8.30
   4  36  -2   33.70    7.40
  -4  36   2   52.19    7.50
  36   2  -4   38.30    7.70
   2  -4  36   70.49    9.30
  36  -2   4   62.79    8.30
  36   2   4   49.80    7.80
  -2  -4  36   52.59    8.60
  -4  36  -2   36.00    7.30
  36  -4   4  287.87   19.20
   4  36  -4  270.37   19.90
  36   4  -4  277.47   20.20
  -4  36   4  283.77   19.00
  36   4   4  272.87   19.50
  -4  -4  36  262.37   19.10
   4  36  -6  452.15   27.40
  -4  36   6  382.06   25.70
  36   6  -4  487.25   27.20
  36  -6   4  424.66   26.10
  -6  -4  36  396.26   25.10
  36   6   4  464.65   27.20
  -4  36  -6  395.16   26.80
  36   0   6  107.99   12.40
   0  -6  36  109.99   11.20
  -6  36   0   96.99   12.10
  36  -2   6  141.69   13.60
  -6  36   2  142.99   13.30
   2  -6  36  136.79   14.70
   6  36  -2  146.09   14.10
  -2  -6  36  127.89   13.70
  -6  36  -2  135.39   13.90
  36   2   6  144.69   13.30
   4  -6  36  496.85   28.30
  36   4  -6  456.85   28.00
  -6  36   4  410.16   26.90
  36  -4   6  434.56   27.00
   6  36  -4  417.16   27.90
  36   4   6  448.86   27.60
  -4  -6  36  428.46   25.60
  -6  36  -4  470.25   27.90

_computing_structure_solution     'SHELXT 2014/4 (Sheldrick, 2014)'
;
_shelx_hkl_checksum              7089
_shelx_SHELXL_version_number     2014/7
_olex2_submission_special_instructions 'No special instructions were received'
