####################################################################### 
# 
# This file contains crystal structure data downloaded from the 
# Cambridge Structural Database (CSD) hosted by the Cambridge 
# Crystallographic Data Centre (CCDC).
# 
# Full information about CCDC data access policies and citation 
# guidelines are available at http://www.ccdc.cam.ac.uk/access/V1 
# 
# Audit and citation data items may have been added by the CCDC. 
# Please retain this information to preserve the provenance of 
# this file and to allow appropriate attribution of the data. 
# 
#######################################################################

data_BUT-155a
_audit_block_doi                 10.5517/ccdc.csd.cc1nvgfd
_database_code_depnum_ccdc_archive 'CCDC 1544774'
loop_
_citation_id
_citation_doi
_citation_year
1 10.1021/acsami.7b07920 2017
_audit_update_record             
;
2017-05-31 deposited with the CCDC.	2021-12-15 downloaded from the CCDC.
;
_audit_creation_date             2017-05-22
_audit_creation_method           
;
Olex2 1.2
(compiled 2017.03.28 svn.r3405 for OlexSys, GUI svn.r5337)
;
_shelxl_version_number           2014-1
_chemical_name_common            ?
_chemical_name_systematic        
;
 ?
;
_chemical_formula_moiety         '0.25(C100 H60 Cu8 O40)'
_chemical_formula_sum            'C25 H19 Cu2 O10'
_chemical_formula_weight         606.48
_chemical_melting_point          ?
_chemical_oxdiff_formula         CHOCu
loop_
_atom_type_symbol
_atom_type_description
_atom_type_scat_dispersion_real
_atom_type_scat_dispersion_imag
_atom_type_scat_source
C C 0.0181 0.0091 'International Tables Vol C Tables 4.2.6.8 and 6.1.1.4'
H H 0.0000 0.0000 'International Tables Vol C Tables 4.2.6.8 and 6.1.1.4'
Cu Cu -1.9646 0.5888 'International Tables Vol C Tables 4.2.6.8 and 6.1.1.4'
O O 0.0492 0.0322 'International Tables Vol C Tables 4.2.6.8 and 6.1.1.4'

_shelx_space_group_comment       
;
The symmetry employed for this shelxl refinement is uniquely defined
by the following loop, which should always be used as a source of
symmetry information in preference to the above space-group names.
They are only intended as comments.
;
_space_group_crystal_system      tetragonal
_space_group_IT_number           129
_space_group_name_H-M_alt        'P 4/n m m'
_space_group_name_Hall           '-P 4a 2a'
loop_
_space_group_symop_operation_xyz
'x, y, z'
'-y+1/2, x, z'
'-x+1/2, -y+1/2, z'
'y, -x+1/2, z'
'x+1/2, -y, -z'
'-x, y+1/2, -z'
'y+1/2, x+1/2, -z'
'-y, -x, -z'
'-x, -y, -z'
'y-1/2, -x, -z'
'x-1/2, y-1/2, -z'
'-y, x-1/2, -z'
'-x-1/2, y, z'
'x, -y-1/2, z'
'-y-1/2, -x-1/2, z'
'y, x, z'

_cell_length_a                   18.8441(5)
_cell_length_b                   18.8441(5)
_cell_length_c                   13.4252(6)
_cell_angle_alpha                90
_cell_angle_beta                 90
_cell_angle_gamma                90
_cell_volume                     4767.3(3)
_cell_formula_units_Z            4
_cell_measurement_reflns_used    4568
_cell_measurement_temperature    290.91(10)
_cell_measurement_theta_max      56.1640
_cell_measurement_theta_min      3.9760
_shelx_estimated_absorpt_T_max   ?
_shelx_estimated_absorpt_T_min   ?
_exptl_absorpt_coefficient_mu    1.363
_exptl_absorpt_correction_T_max  1.00000
_exptl_absorpt_correction_T_min  0.77606
_exptl_absorpt_correction_type   multi-scan
_exptl_absorpt_process_details   
;
CrysAlisPro 1.171.38.43f (Rigaku Oxford Diffraction, 2015)
Empirical absorption correction using spherical harmonics,
 implemented in SCALE3 ABSPACK scaling algorithm.
;
_exptl_crystal_colour            green
_exptl_crystal_colour_primary    green
_exptl_crystal_density_diffrn    0.845
_exptl_crystal_density_meas      ?
_exptl_crystal_density_method    ?
_exptl_crystal_description       block
_exptl_crystal_F_000             1228
_exptl_crystal_size_max          0.2
_exptl_crystal_size_mid          0.15
_exptl_crystal_size_min          0.1
_exptl_special_details           
;
 ?
;
_exptl_transmission_factor_max   ?
_exptl_transmission_factor_min   ?
_diffrn_reflns_av_R_equivalents  0.0603
_diffrn_reflns_av_unetI/netI     0.0302
_diffrn_reflns_Laue_measured_fraction_full 1.000
_diffrn_reflns_Laue_measured_fraction_max 0.990
_diffrn_reflns_limit_h_max       23
_diffrn_reflns_limit_h_min       -18
_diffrn_reflns_limit_k_max       21
_diffrn_reflns_limit_k_min       -23
_diffrn_reflns_limit_l_max       16
_diffrn_reflns_limit_l_min       -11
_diffrn_reflns_number            22493
_diffrn_reflns_point_group_measured_fraction_full 1.000
_diffrn_reflns_point_group_measured_fraction_max 0.990
_diffrn_reflns_theta_full        67.684
_diffrn_reflns_theta_max         73.896
_diffrn_reflns_theta_min         3.317
_diffrn_ambient_environment      air
_diffrn_ambient_temperature      290.91(10)
_diffrn_detector                 'CCD plate'
_diffrn_detector_area_resol_mean 10.3376
_diffrn_detector_type            AtlasS2
_diffrn_measured_fraction_theta_full 1.000
_diffrn_measured_fraction_theta_max 0.990
_diffrn_measurement_details      
;
List of Runs (angles in degrees, time in seconds):

  # Type    Start    End  Width  t~exp~   \w     \q     \k     \f   Frames
#--------------------------------------------------------------------------
  1  \w    -74.00  34.00   1.00   10.00    --  -41.81  77.00-120.00  108
  2  \w   -114.00 -67.00   1.00   10.00    --  -41.81-135.00 -64.00   47
  3  \w   -114.00 -14.00   1.00   10.00    --  -41.81 -57.00-150.00  100
  4  \w     23.00 109.00   1.00   20.00    --  105.88 -94.00-150.00   86
  5  \w     23.00 109.00   1.00   20.00    --  105.88 -94.00 -30.00   86
  6  \w     53.00 178.00   1.00   20.00    --  105.88  15.00-120.00  125
  7  \w   -114.00 -14.00   1.00   10.00    --  -41.81 -57.00 -30.00  100
  8  \w   -121.00 -46.00   1.00   10.00    --  -41.81-164.00  47.00   75
  9  \w   -116.00 -17.00   1.00   10.00    --  -41.81 -38.00  90.00   99
 10  \w     53.00  80.00   1.00   20.00    --  105.88  15.00  90.00   27
;
_diffrn_measurement_device       'four-circle diffractometer'
_diffrn_measurement_device_type  'SuperNova, Dual, Cu at zero, AtlasS2'
_diffrn_measurement_method       '\w scans'
_diffrn_orient_matrix_type       
'CrysAlisPro convention (1999,Acta A55,543-557)'
_diffrn_orient_matrix_UB_11      0.0407480000
_diffrn_orient_matrix_UB_12      -0.0705783000
_diffrn_orient_matrix_UB_13      -0.0089785000
_diffrn_orient_matrix_UB_21      0.0697263000
_diffrn_orient_matrix_UB_22      0.0412495000
_diffrn_orient_matrix_UB_23      -0.0151978000
_diffrn_orient_matrix_UB_31      0.0126067000
_diffrn_orient_matrix_UB_32      -0.0001573000
_diffrn_orient_matrix_UB_33      0.1134146000
_diffrn_radiation_monochromator  mirror
_diffrn_radiation_probe          x-ray
_diffrn_radiation_type           CuK\a
_diffrn_radiation_wavelength     1.54184
_diffrn_source                   'micro-focus sealed X-ray tube'
_diffrn_source_type              'SuperNova (Cu) X-ray Source'
_reflns_Friedel_coverage         0.000
_reflns_Friedel_fraction_full    .
_reflns_Friedel_fraction_max     .
_reflns_number_gt                1563
_reflns_number_total             2662
_reflns_odcompleteness_completeness 99.92
_reflns_odcompleteness_iscentric 1
_reflns_odcompleteness_theta     66.97
_reflns_special_details          
;
 Reflections were merged by SHELXL according to the crystal
 class for the calculation of statistics and refinement.
 
 Structure factors included contributions from the .fab file.
 
 _reflns_Friedel_fraction is defined as the number of unique
 Friedel pairs measured divided by the number that would be
 possible theoretically, ignoring centric projections and
 systematic absences.
;
_reflns_threshold_expression     'I > 2\s(I)'
_computing_cell_refinement       'CrysAlisPro 1.171.38.43f (Rigaku OD, 2015)'
_computing_data_collection       'CrysAlisPro 1.171.38.43f (Rigaku OD, 2015)'
_computing_data_reduction        'CrysAlisPro 1.171.38.43f (Rigaku OD, 2015)'
_computing_molecular_graphics    'Olex2 (Dolomanov et al., 2009)'
_computing_publication_material  'Olex2 (Dolomanov et al., 2009)'
_computing_structure_refinement  'ShelXL (Sheldrick, 2015)'
_computing_structure_solution    'SIR2004 (Burla et al., 2007)'
_refine_diff_density_max         0.733
_refine_diff_density_min         -0.287
_refine_diff_density_rms         0.082
_refine_ls_extinction_coef       .
_refine_ls_extinction_method     none
_refine_ls_goodness_of_fit_ref   0.990
_refine_ls_hydrogen_treatment    constr
_refine_ls_matrix_type           full
_refine_ls_number_parameters     101
_refine_ls_number_reflns         2662
_refine_ls_number_restraints     0
_refine_ls_R_factor_all          0.0977
_refine_ls_R_factor_gt           0.0752
_refine_ls_restrained_S_all      0.990
_refine_ls_shift/su_max          0.000
_refine_ls_shift/su_mean         0.000
_refine_ls_structure_factor_coef Fsqd
_refine_ls_weighting_details     
'w=1/[\s^2^(Fo^2^)+(0.1763P)^2^] where P=(Fo^2^+2Fc^2^)/3'
_refine_ls_weighting_scheme      calc
_refine_ls_wR_factor_gt          0.2399
_refine_ls_wR_factor_ref         0.2681
_refine_special_details          
;
 ?
;
_olex2_refinement_description    
;
1. Fixed Uiso
 At 1.2 times of:
  All C(H) groups
 At 1.5 times of:
  All C(H,H,H) groups
2. Others
 Fixed Sof: H8A(0.25) H8B(0.25) H8C(0.25) H11A(0.5) H11B(0.5) H11C(0.5)
3.a Riding coordinates:
 C8(H8A,H8B,H8C)
3.b Aromatic/amide H refined with riding coordinates:
 C4(H4), C3(H3)
3.c Idealised Me refined as rotating group:
 C11(H11A,H11B,H11C)
;
_atom_sites_solution_hydrogens   mixed
_atom_sites_solution_primary     direct
_atom_sites_solution_secondary   ?
loop_
_atom_site_label
_atom_site_type_symbol
_atom_site_fract_x
_atom_site_fract_y
_atom_site_fract_z
_atom_site_U_iso_or_equiv
_atom_site_adp_type
_atom_site_occupancy
_atom_site_site_symmetry_order
_atom_site_calc_flag
_atom_site_refinement_flags_posn
_atom_site_refinement_flags_adp
_atom_site_refinement_flags_occupancy
_atom_site_disorder_assembly
_atom_site_disorder_group
Cu1 Cu 0.53388(3) 0.53388(3) 0.57348(7) 0.0774(4) Uani 1 2 d S T P . .
O2 O 0.48212(18) 0.38058(17) 0.5026(3) 0.0929(10) Uani 1 1 d . . . . .
C8 C 0.7500 0.2500 0.6265(6) 0.091(3) Uani 1 4 d S T P . .
H8A H 0.7889 0.2218 0.6027 0.136 Uiso 0.25 1 d R . . . .
H8B H 0.7500 0.2978 0.6027 0.136 Uiso 0.5 2 d RS T P . .
H8C H 0.7062 0.2304 0.6027 0.136 Uiso 0.25 1 d R . . . .
C11 C 0.6163(4) 0.2500 0.9500(6) 0.097(2) Uani 1 2 d S T P . .
H11A H 0.6220 0.2748 1.0119 0.146 Uiso 0.5 1 calc GR . . A -1
H11B H 0.6020 0.2020 0.9629 0.146 Uiso 0.5 1 calc GR . . A -1
H11C H 0.5806 0.2732 0.9107 0.146 Uiso 0.5 1 calc GR . . A -1
O1 O 0.5847(2) 0.5847(2) 0.6996(4) 0.149(3) Uani 1 2 d S T P . .
O3 O 0.54113(16) 0.43792(18) 0.6247(3) 0.0908(9) Uani 1 1 d . . . . .
C9 C 0.6851(3) 0.2500 0.8946(5) 0.0764(15) Uani 1 2 d S T P . .
C7 C 0.7500 0.2500 0.7401(6) 0.074(2) Uani 1 4 d S T P . .
C6 C 0.6868(3) 0.2500 0.7923(4) 0.0736(15) Uani 1 2 d S T P . .
C5 C 0.6194(3) 0.2500 0.7326(4) 0.0767(15) Uani 1 2 d S T P . .
C4 C 0.5917(2) 0.3125(2) 0.6975(3) 0.0803(11) Uani 1 1 d . . . . .
H4 H 0.6084 0.3552 0.7231 0.096 Uiso 1 1 calc R . . . .
C10 C 0.7500 0.2500 0.9460(6) 0.075(2) Uani 1 4 d S T P . .
C2 C 0.5404(2) 0.3135(2) 0.6260(4) 0.0812(12) Uani 1 1 d . . . . .
C1 C 0.5191(2) 0.3841(3) 0.5803(3) 0.0787(11) Uani 1 1 d . . . . .
C3 C 0.5159(4) 0.2500 0.5882(5) 0.0801(16) Uani 1 2 d S T P . .
H3 H 0.4827 0.2500 0.5370 0.096 Uiso 1 2 calc RS T P . .

loop_
_atom_site_aniso_label
_atom_site_aniso_U_11
_atom_site_aniso_U_22
_atom_site_aniso_U_33
_atom_site_aniso_U_23
_atom_site_aniso_U_13
_atom_site_aniso_U_12
Cu1 0.0666(4) 0.0666(4) 0.0989(8) -0.0183(3) -0.0183(3) 0.0120(4)
O2 0.091(2) 0.075(2) 0.112(2) -0.0125(17) -0.0256(18) 0.0113(16)
C8 0.110(7) 0.095(6) 0.067(5) 0.000 0.000 0.000
C11 0.082(4) 0.113(6) 0.096(4) 0.000 0.002(4) 0.000
O1 0.164(4) 0.164(4) 0.119(4) -0.041(3) -0.041(3) -0.050(5)
O3 0.088(2) 0.0779(19) 0.107(2) -0.0138(19) -0.0207(17) 0.0169(15)
C9 0.088(4) 0.061(3) 0.081(4) 0.000 -0.006(3) 0.000
C7 0.095(6) 0.057(4) 0.071(5) 0.000 0.000 0.000
C6 0.085(4) 0.061(3) 0.076(4) 0.000 -0.005(3) 0.000
C5 0.092(4) 0.065(3) 0.073(3) 0.000 -0.009(3) 0.000
C4 0.079(3) 0.077(3) 0.084(3) -0.007(2) -0.012(2) 0.007(2)
C10 0.079(5) 0.073(5) 0.074(4) 0.000 0.000 0.000
C2 0.075(3) 0.074(3) 0.094(3) -0.005(2) -0.015(2) 0.008(2)
C1 0.076(3) 0.076(3) 0.084(3) -0.012(2) -0.011(2) 0.019(2)
C3 0.076(4) 0.074(4) 0.091(4) 0.000 -0.009(3) 0.000

_geom_special_details            
;
 All esds (except the esd in the dihedral angle between two l.s. planes)
 are estimated using the full covariance matrix.  The cell esds are taken
 into account individually in the estimation of esds in distances, angles
 and torsion angles; correlations between esds in cell parameters are only
 used when they are defined by crystal symmetry.  An approximate (isotropic)
 treatment of cell esds is used for estimating esds involving l.s. planes.
;
loop_
_geom_bond_atom_site_label_1
_geom_bond_atom_site_label_2
_geom_bond_distance
_geom_bond_site_symmetry_2
_geom_bond_publ_flag
Cu1 Cu1 2.6746(17) 9_666 ?
Cu1 O2 1.932(3) 9_666 ?
Cu1 O2 1.932(3) 8_666 ?
Cu1 O1 2.167(5) . ?
Cu1 O3 1.940(3) 16 ?
Cu1 O3 1.940(3) . ?
O2 Cu1 1.932(3) 9_666 ?
O2 C1 1.256(5) . ?
C8 H8A 0.9600 . ?
C8 H8B 0.9555 . ?
C8 H8C 0.9600 . ?
C8 C7 1.525(12) . ?
C11 H11A 0.9600 . ?
C11 H11B 0.9600 . ?
C11 H11C 0.9600 . ?
C11 C9 1.495(9) . ?
O3 C1 1.248(6) . ?
C9 C6 1.373(8) . ?
C9 C10 1.405(7) . ?
C7 C6 1.381(7) 3_655 ?
C7 C6 1.381(7) . ?
C6 C5 1.503(8) . ?
C5 C4 1.372(5) . ?
C5 C4 1.372(5) 14_565 ?
C4 H4 0.9300 . ?
C4 C2 1.362(6) . ?
C10 C9 1.405(7) 3_655 ?
C10 C10 1.449(17) 10_667 ?
C2 C1 1.518(6) . ?
C2 C3 1.380(5) . ?
C3 C2 1.380(5) 14_565 ?
C3 H3 0.9300 . ?

loop_
_geom_angle_atom_site_label_1
_geom_angle_atom_site_label_2
_geom_angle_atom_site_label_3
_geom_angle
_geom_angle_site_symmetry_1
_geom_angle_site_symmetry_3
_geom_angle_publ_flag
O2 Cu1 Cu1 86.21(10) 8_666 9_666 ?
O2 Cu1 Cu1 86.21(10) 9_666 9_666 ?
O2 Cu1 O2 88.9(2) 8_666 9_666 ?
O2 Cu1 O1 96.52(16) 9_666 . ?
O2 Cu1 O1 96.52(16) 8_666 . ?
O2 Cu1 O3 89.04(15) 9_666 16 ?
O2 Cu1 O3 89.05(15) 8_666 . ?
O2 Cu1 O3 167.54(14) 9_666 . ?
O2 Cu1 O3 167.54(14) 8_666 16 ?
O1 Cu1 Cu1 176.2(2) . 9_666 ?
O3 Cu1 Cu1 81.39(10) 16 9_666 ?
O3 Cu1 Cu1 81.39(10) . 9_666 ?
O3 Cu1 O1 95.93(17) 16 . ?
O3 Cu1 O1 95.93(17) . . ?
O3 Cu1 O3 90.31(19) 16 . ?
C1 O2 Cu1 118.8(3) . 9_666 ?
H8A C8 H8B 114.2 . . ?
H8A C8 H8C 109.5 . . ?
H8B C8 H8C 104.6 . . ?
C7 C8 H8A 109.5 . . ?
C7 C8 H8B 109.6 . . ?
C7 C8 H8C 109.5 . . ?
H11A C11 H11B 109.5 . . ?
H11A C11 H11C 109.5 . . ?
H11B C11 H11C 109.5 . . ?
C9 C11 H11A 109.5 . . ?
C9 C11 H11B 109.5 . . ?
C9 C11 H11C 109.5 . . ?
C1 O3 Cu1 124.4(3) . . ?
C6 C9 C11 121.2(6) . . ?
C6 C9 C10 118.1(6) . . ?
C10 C9 C11 120.7(6) . . ?
C6 C7 C8 120.5(4) 3_655 . ?
C6 C7 C8 120.5(4) . . ?
C6 C7 C6 119.0(7) 3_655 . ?
C9 C6 C7 121.9(6) . . ?
C9 C6 C5 120.8(6) . . ?
C7 C6 C5 117.3(5) . . ?
C4 C5 C6 120.3(3) . . ?
C4 C5 C6 120.3(3) 14_565 . ?
C4 C5 C4 118.3(6) . 14_565 ?
C5 C4 H4 119.2 . . ?
C2 C4 C5 121.6(4) . . ?
C2 C4 H4 119.2 . . ?
C9 C10 C9 121.1(8) 3_655 . ?
C9 C10 C10 119.5(4) 3_655 10_667 ?
C9 C10 C10 119.5(4) . 10_667 ?
C4 C2 C1 119.0(4) . . ?
C4 C2 C3 118.9(4) . . ?
C3 C2 C1 121.5(4) . . ?
O2 C1 C2 115.8(4) . . ?
O3 C1 O2 128.6(4) . . ?
O3 C1 C2 115.5(4) . . ?
C2 C3 C2 120.4(6) 14_565 . ?
C2 C3 H3 119.8 . . ?
C2 C3 H3 119.8 14_565 . ?

loop_
_geom_torsion_atom_site_label_1
_geom_torsion_atom_site_label_2
_geom_torsion_atom_site_label_3
_geom_torsion_atom_site_label_4
_geom_torsion
_geom_torsion_site_symmetry_1
_geom_torsion_site_symmetry_2
_geom_torsion_site_symmetry_3
_geom_torsion_site_symmetry_4
_geom_torsion_publ_flag
Cu1 O2 C1 O3 9.8(7) 9_666 . . . ?
Cu1 O2 C1 C2 -169.4(3) 9_666 . . . ?
Cu1 O3 C1 O2 -8.6(8) . . . . ?
Cu1 O3 C1 C2 170.7(3) . . . . ?
C8 C7 C6 C9 180.000(1) . . . . ?
C8 C7 C6 C5 0.000(1) . . . . ?
C11 C9 C6 C7 180.000(1) . . . . ?
C11 C9 C6 C5 0.000(2) . . . . ?
C11 C9 C10 C9 180.000(1) . . . 3_655 ?
C11 C9 C10 C10 0.000(1) . . . 10_667 ?
C9 C6 C5 C4 -95.9(5) . . . 14_565 ?
C9 C6 C5 C4 95.9(5) . . . . ?
C7 C6 C5 C4 -84.1(5) . . . . ?
C7 C6 C5 C4 84.1(5) . . . 14_565 ?
C6 C9 C10 C9 0.000(2) . . . 3_655 ?
C6 C9 C10 C10 180.000(2) . . . 10_667 ?
C6 C7 C6 C9 0.000(2) 3_655 . . . ?
C6 C7 C6 C5 180.000(1) 3_655 . . . ?
C6 C5 C4 C2 165.4(5) . . . . ?
C5 C4 C2 C1 -171.9(5) . . . . ?
C5 C4 C2 C3 -0.1(8) . . . . ?
C4 C5 C4 C2 -3.1(9) 14_565 . . . ?
C4 C2 C1 O2 166.8(4) . . . . ?
C4 C2 C1 O3 -12.6(7) . . . . ?
C4 C2 C3 C2 3.3(10) . . . 14_565 ?
C10 C9 C6 C7 0.000(2) . . . . ?
C10 C9 C6 C5 180.000(1) . . . . ?
C1 C2 C3 C2 174.9(4) . . . 14_565 ?
C3 C2 C1 O2 -4.8(7) . . . . ?
C3 C2 C1 O3 175.8(5) . . . . ?

_shelx_fab_file                  
;
0 0 2 -56.0341 0.0000
0 0 3 -84.2896 0.0000
0 0 4 -50.6451 0.0000
0 0 5 -30.2259 0.0000
0 0 6 1.8426 0.0000
0 0 7 5.0729 0.0000
0 0 8 2.6006 0.0000
0 0 9 4.2938 0.0000
0 0 10 3.9250 0.0000
0 0 11 -3.9784 0.0000
0 0 12 0.2348 0.0000
0 0 13 -1.0796 0.0000
0 0 14 1.5943 0.0000
0 0 15 -6.0496 0.0000
0 0 16 -1.4887 0.0000
1 0 1 -7.5354 0.0000
1 0 2 27.7029 0.0000
1 0 3 44.2342 0.0000
1 0 4 22.6309 0.0000
1 0 5 -1.7613 0.0000
1 0 6 -4.4920 0.0000
1 0 7 -4.8952 0.0000
1 0 8 -0.0657 0.0000
1 0 9 1.0661 0.0000
1 0 10 -2.5794 0.0000
1 0 11 -1.4620 0.0000
1 0 12 0.2421 0.0000
1 0 13 -0.5867 0.0000
1 0 14 -1.0215 0.0000
1 0 15 2.0494 0.0000
1 0 16 0.0384 0.0000
1 1 0 -211.0462 0.0000
1 1 1 14.5355 0.0000
1 1 2 -35.2087 0.0000
1 1 3 27.5471 0.0000
1 1 4 5.5461 0.0000
1 1 5 1.3845 0.0000
1 1 6 3.2503 0.0000
1 1 7 -1.4097 0.0000
1 1 8 1.3778 0.0000
1 1 9 -1.4488 0.0000
1 1 10 0.6245 0.0000
1 1 11 0.6538 0.0000
1 1 12 0.2144 0.0000
1 1 13 0.7653 0.0000
1 1 14 -1.1199 0.0000
1 1 15 0.1470 0.0000
1 1 16 1.9048 0.0000
2 0 0 -22.8610 0.0000
2 0 1 127.3340 0.0000
2 0 2 21.7142 0.0000
2 0 3 -5.7125 0.0000
2 0 4 -41.4475 0.0000
2 0 5 -22.7677 0.0000
2 0 6 -2.4924 0.0000
2 0 7 2.0870 0.0000
2 0 8 3.1876 0.0000
2 0 9 0.4806 0.0000
2 0 10 0.3513 0.0000
2 0 11 0.2570 0.0000
2 0 12 -1.5489 0.0000
2 0 13 -0.2290 0.0000
2 0 14 -1.0845 0.0000
2 0 15 0.2664 0.0000
2 0 16 1.0059 0.0000
2 1 1 -52.8960 0.0000
2 1 2 -12.5654 0.0000
2 1 3 33.6828 0.0000
2 1 4 -2.0016 0.0000
2 1 5 3.9008 0.0000
2 1 6 -4.1298 0.0000
2 1 7 -0.8250 0.0000
2 1 8 -0.2903 0.0000
2 1 9 2.2149 0.0000
2 1 10 -0.3234 0.0000
2 1 11 -0.2291 0.0000
2 1 12 0.8661 0.0000
2 1 13 1.2243 0.0000
2 1 14 -0.2849 0.0000
2 1 15 -1.2521 0.0000
2 1 16 0.4490 0.0000
2 2 0 -6.0718 0.0000
2 2 1 4.9636 0.0000
2 2 2 139.3591 0.0000
2 2 3 13.1192 0.0000
2 2 4 -28.1064 0.0000
2 2 5 -20.8317 0.0000
2 2 6 -8.1427 0.0000
2 2 7 7.2056 0.0000
2 2 8 3.0977 0.0000
2 2 9 -1.4152 0.0000
2 2 10 -2.6673 0.0000
2 2 11 1.6183 0.0000
2 2 12 -1.5864 0.0000
2 2 13 -2.6822 0.0000
2 2 14 -0.7194 0.0000
2 2 15 2.2526 0.0000
2 2 16 -0.9706 0.0000
3 0 1 111.5416 0.0000
3 0 2 34.1577 0.0000
3 0 3 -1.2769 0.0000
3 0 4 -8.2218 0.0000
3 0 5 -12.2272 0.0000
3 0 6 -1.2758 0.0000
3 0 7 0.7974 0.0000
3 0 8 1.5807 0.0000
3 0 9 -0.4205 0.0000
3 0 10 1.2176 0.0000
3 0 11 -2.4754 0.0000
3 0 12 -2.5253 0.0000
3 0 13 -1.8407 0.0000
3 0 14 2.1477 0.0000
3 0 15 0.7873 0.0000
3 0 16 0.5595 0.0000
3 1 0 -4.8190 0.0000
3 1 1 -61.7254 0.0000
3 1 2 -2.0048 0.0000
3 1 3 7.2562 0.0000
3 1 4 14.3947 0.0000
3 1 5 1.8772 0.0000
3 1 6 -0.0803 0.0000
3 1 7 0.2017 0.0000
3 1 8 -1.1634 0.0000
3 1 9 -1.4764 0.0000
3 1 10 0.7105 0.0000
3 1 11 0.1036 0.0000
3 1 12 0.8451 0.0000
3 1 13 0.4161 0.0000
3 1 14 -0.3570 0.0000
3 1 15 -1.3098 0.0000
3 1 16 -0.4718 0.0000
3 2 1 -33.8759 0.0000
3 2 2 8.8741 0.0000
3 2 3 -2.1054 0.0000
3 2 4 -6.7908 0.0000
3 2 5 -5.2307 0.0000
3 2 6 5.3592 0.0000
3 2 7 2.7045 0.0000
3 2 8 -1.3121 0.0000
3 2 9 0.5358 0.0000
3 2 10 -0.0479 0.0000
3 2 11 0.4601 0.0000
3 2 12 -0.8570 0.0000
3 2 13 -1.6731 0.0000
3 2 14 -0.7494 0.0000
3 2 15 0.4295 0.0000
3 2 16 1.7952 0.0000
3 3 0 -41.2714 0.0000
3 3 1 -9.8244 0.0000
3 3 2 -16.5352 0.0000
3 3 3 -4.1678 0.0000
3 3 4 -4.7074 0.0000
3 3 5 1.6944 0.0000
3 3 6 4.2295 0.0000
3 3 7 -1.3291 0.0000
3 3 8 -2.0404 0.0000
3 3 9 -1.8452 0.0000
3 3 10 -0.2781 0.0000
3 3 11 0.8036 0.0000
3 3 12 3.0627 0.0000
3 3 13 2.1035 0.0000
3 3 14 -0.5067 0.0000
3 3 15 0.2121 0.0000
3 3 16 -0.2535 0.0000
4 0 0 74.0059 0.0000
4 0 1 14.8732 0.0000
4 0 2 -28.4450 0.0000
4 0 3 -8.0884 0.0000
4 0 4 13.6155 0.0000
4 0 5 -2.6244 0.0000
4 0 6 -2.7437 0.0000
4 0 7 -5.8434 0.0000
4 0 8 -4.2853 0.0000
4 0 9 1.8031 0.0000
4 0 10 1.9473 0.0000
4 0 11 -0.7475 0.0000
4 0 12 0.2071 0.0000
4 0 13 1.1974 0.0000
4 0 14 -0.7153 0.0000
4 0 15 -1.6218 0.0000
4 0 16 -0.7189 0.0000
4 1 1 -85.3494 0.0000
4 1 2 -26.2855 0.0000
4 1 3 9.0389 0.0000
4 1 4 15.4561 0.0000
4 1 5 0.1333 0.0000
4 1 6 -1.9706 0.0000
4 1 7 -3.6855 0.0000
4 1 8 -0.1210 0.0000
4 1 9 -0.6464 0.0000
4 1 10 -0.5122 0.0000
4 1 11 1.6779 0.0000
4 1 12 3.0339 0.0000
4 1 13 0.7282 0.0000
4 1 14 -0.4885 0.0000
4 1 15 -1.5373 0.0000
4 1 16 -0.7229 0.0000
4 2 0 12.8186 0.0000
4 2 1 8.6689 0.0000
4 2 2 5.4165 0.0000
4 2 3 17.2152 0.0000
4 2 4 -2.4146 0.0000
4 2 5 0.0902 0.0000
4 2 6 0.7465 0.0000
4 2 7 -1.4580 0.0000
4 2 8 -0.8688 0.0000
4 2 9 -0.4221 0.0000
4 2 10 1.4428 0.0000
4 2 11 0.8038 0.0000
4 2 12 0.5884 0.0000
4 2 13 -1.5093 0.0000
4 2 14 0.1685 0.0000
4 2 15 1.4541 0.0000
4 2 16 1.2344 0.0000
4 3 1 34.8315 0.0000
4 3 2 -15.9430 0.0000
4 3 3 -13.9732 0.0000
4 3 4 6.6935 0.0000
4 3 5 6.8285 0.0000
4 3 6 1.4156 0.0000
4 3 7 1.4495 0.0000
4 3 8 -2.1552 0.0000
4 3 9 -2.1199 0.0000
4 3 10 1.7664 0.0000
4 3 11 1.2713 0.0000
4 3 12 0.3470 0.0000
4 3 13 1.3645 0.0000
4 3 14 -2.1592 0.0000
4 3 15 0.8982 0.0000
4 3 16 -0.6487 0.0000
4 4 0 1.3142 0.0000
4 4 1 -8.8244 0.0000
4 4 2 -30.4771 0.0000
4 4 3 -4.2670 0.0000
4 4 4 24.8228 0.0000
4 4 5 10.5880 0.0000
4 4 6 -3.6515 0.0000
4 4 7 -7.2306 0.0000
4 4 8 0.8377 0.0000
4 4 9 3.0966 0.0000
4 4 10 0.6164 0.0000
4 4 11 0.4665 0.0000
4 4 12 -0.7586 0.0000
4 4 13 -0.9376 0.0000
4 4 14 -0.3857 0.0000
4 4 15 1.4160 0.0000
4 4 16 2.4383 0.0000
5 0 1 6.1696 0.0000
5 0 2 22.1223 0.0000
5 0 3 16.3367 0.0000
5 0 4 -1.3498 0.0000
5 0 5 -14.5418 0.0000
5 0 6 -3.4726 0.0000
5 0 7 -0.6865 0.0000
5 0 8 3.5490 0.0000
5 0 9 -1.5786 0.0000
5 0 10 -1.6830 0.0000
5 0 11 -1.2062 0.0000
5 0 12 -0.8833 0.0000
5 0 13 -0.3382 0.0000
5 0 14 0.1059 0.0000
5 0 15 -1.1941 0.0000
5 0 16 -3.6852 0.0000
5 1 0 35.6459 0.0000
5 1 1 -31.4112 0.0000
5 1 2 -14.9091 0.0000
5 1 3 11.7149 0.0000
5 1 4 5.2149 0.0000
5 1 5 4.4413 0.0000
5 1 6 -2.0898 0.0000
5 1 7 -0.3944 0.0000
5 1 8 -1.3923 0.0000
5 1 9 -0.0534 0.0000
5 1 10 2.3598 0.0000
5 1 11 0.2014 0.0000
5 1 12 -0.9802 0.0000
5 1 13 -1.9985 0.0000
5 1 14 1.5709 0.0000
5 1 15 1.0623 0.0000
5 1 16 -0.0501 0.0000
5 2 1 -12.6541 0.0000
5 2 2 17.0840 0.0000
5 2 3 20.0151 0.0000
5 2 4 -2.0370 0.0000
5 2 5 -7.7634 0.0000
5 2 6 -7.2235 0.0000
5 2 7 0.9600 0.0000
5 2 8 3.8429 0.0000
5 2 9 2.9303 0.0000
5 2 10 -1.5208 0.0000
5 2 11 -1.0132 0.0000
5 2 12 0.2732 0.0000
5 2 13 0.0845 0.0000
5 2 14 -2.1533 0.0000
5 2 15 -0.7667 0.0000
5 2 16 0.9825 0.0000
5 3 0 -5.2423 0.0000
5 3 1 14.5340 0.0000
5 3 2 -4.6546 0.0000
5 3 3 -7.4157 0.0000
5 3 4 0.7472 0.0000
5 3 5 -12.1628 0.0000
5 3 6 -4.0612 0.0000
5 3 7 1.9038 0.0000
5 3 8 0.7746 0.0000
5 3 9 1.8753 0.0000
5 3 10 -0.5257 0.0000
5 3 11 1.0320 0.0000
5 3 12 -1.1114 0.0000
5 3 13 0.8809 0.0000
5 3 14 0.6234 0.0000
5 3 15 0.2600 0.0000
5 3 16 -0.1979 0.0000
5 4 1 1.9470 0.0000
5 4 2 -11.3691 0.0000
5 4 3 0.4172 0.0000
5 4 4 6.2063 0.0000
5 4 5 1.0854 0.0000
5 4 6 -7.7087 0.0000
5 4 7 0.7686 0.0000
5 4 8 2.9082 0.0000
5 4 9 -1.5259 0.0000
5 4 10 -0.6392 0.0000
5 4 11 1.5300 0.0000
5 4 12 2.7881 0.0000
5 4 13 -1.6427 0.0000
5 4 14 0.0038 0.0000
5 4 15 0.2052 0.0000
5 4 16 0.0543 0.0000
5 5 0 31.5067 0.0000
5 5 1 -3.7445 0.0000
5 5 2 0.3901 0.0000
5 5 3 8.2151 0.0000
5 5 4 -1.1523 0.0000
5 5 5 -4.0512 0.0000
5 5 6 -4.7669 0.0000
5 5 7 -0.0642 0.0000
5 5 8 -2.7773 0.0000
5 5 9 2.5982 0.0000
5 5 10 2.8176 0.0000
5 5 11 -2.0428 0.0000
5 5 12 -0.5519 0.0000
5 5 13 0.0224 0.0000
5 5 14 0.9208 0.0000
5 5 15 -1.6001 0.0000
6 0 0 34.4259 0.0000
6 0 1 -24.7890 0.0000
6 0 2 -7.5514 0.0000
6 0 3 -5.5146 0.0000
6 0 4 9.8938 0.0000
6 0 5 9.4015 0.0000
6 0 6 3.4176 0.0000
6 0 7 1.8646 0.0000
6 0 8 -3.1081 0.0000
6 0 9 -1.1386 0.0000
6 0 10 -0.8977 0.0000
6 0 11 -0.6886 0.0000
6 0 12 1.3682 0.0000
6 0 13 -1.5426 0.0000
6 0 14 -1.3455 0.0000
6 0 15 -0.8190 0.0000
6 0 16 -3.4167 0.0000
6 1 1 -31.1662 0.0000
6 1 2 -16.5816 0.0000
6 1 3 3.9362 0.0000
6 1 4 9.7968 0.0000
6 1 5 -3.6640 0.0000
6 1 6 -3.9991 0.0000
6 1 7 -1.9487 0.0000
6 1 8 2.0370 0.0000
6 1 9 0.2353 0.0000
6 1 10 -2.1176 0.0000
6 1 11 -0.0137 0.0000
6 1 12 1.4763 0.0000
6 1 13 -0.4081 0.0000
6 1 14 1.4187 0.0000
6 1 15 -0.2667 0.0000
6 1 16 1.8958 0.0000
6 2 0 -24.4652 0.0000
6 2 1 20.4240 0.0000
6 2 2 -0.4132 0.0000
6 2 3 -0.9476 0.0000
6 2 4 -8.9081 0.0000
6 2 5 -7.7211 0.0000
6 2 6 6.2545 0.0000
6 2 7 6.8001 0.0000
6 2 8 0.2576 0.0000
6 2 9 -3.2128 0.0000
6 2 10 -1.3925 0.0000
6 2 11 0.7737 0.0000
6 2 12 -1.0189 0.0000
6 2 13 0.7421 0.0000
6 2 14 0.0161 0.0000
6 2 15 -2.2358 0.0000
6 2 16 0.6608 0.0000
6 3 1 1.4039 0.0000
6 3 2 -2.6104 0.0000
6 3 3 -0.7056 0.0000
6 3 4 -0.3470 0.0000
6 3 5 -0.2848 0.0000
6 3 6 3.6432 0.0000
6 3 7 0.8240 0.0000
6 3 8 -3.8438 0.0000
6 3 9 -1.0889 0.0000
6 3 10 1.8663 0.0000
6 3 11 -0.6105 0.0000
6 3 12 -1.6057 0.0000
6 3 13 0.1844 0.0000
6 3 14 1.1454 0.0000
6 3 15 1.1535 0.0000
6 3 16 0.4377 0.0000
6 4 0 3.1743 0.0000
6 4 1 -15.1519 0.0000
6 4 2 -3.0432 0.0000
6 4 3 -6.4137 0.0000
6 4 4 1.8995 0.0000
6 4 5 7.4235 0.0000
6 4 6 -2.8579 0.0000
6 4 7 -0.5566 0.0000
6 4 8 0.1881 0.0000
6 4 9 -0.5652 0.0000
6 4 10 0.5172 0.0000
6 4 11 -0.6907 0.0000
6 4 12 -0.3237 0.0000
6 4 13 -1.4640 0.0000
6 4 14 -2.1390 0.0000
6 4 15 -1.3678 0.0000
6 5 1 -0.2837 0.0000
6 5 2 9.5907 0.0000
6 5 3 4.7078 0.0000
6 5 4 2.1868 0.0000
6 5 5 -2.8777 0.0000
6 5 6 -2.2599 0.0000
6 5 7 2.0281 0.0000
6 5 8 2.5328 0.0000
6 5 9 -2.5217 0.0000
6 5 10 -1.9771 0.0000
6 5 11 0.9784 0.0000
6 5 12 -2.0680 0.0000
6 5 13 -2.3044 0.0000
6 5 14 -0.4356 0.0000
6 5 15 0.1157 0.0000
6 6 0 5.2525 0.0000
6 6 1 2.9169 0.0000
6 6 2 -6.2952 0.0000
6 6 3 -0.0942 0.0000
6 6 4 7.2092 0.0000
6 6 5 0.5107 0.0000
6 6 6 1.0147 0.0000
6 6 7 7.1944 0.0000
6 6 8 3.8382 0.0000
6 6 9 -2.3174 0.0000
6 6 10 -0.8498 0.0000
6 6 11 3.3252 0.0000
6 6 12 2.8571 0.0000
6 6 13 -2.4508 0.0000
6 6 14 -2.1721 0.0000
6 6 15 0.7418 0.0000
7 0 1 11.4675 0.0000
7 0 2 -7.2186 0.0000
7 0 3 -0.0811 0.0000
7 0 4 4.2002 0.0000
7 0 5 2.9880 0.0000
7 0 6 1.6864 0.0000
7 0 7 3.2702 0.0000
7 0 8 -1.6630 0.0000
7 0 9 0.7914 0.0000
7 0 10 0.4749 0.0000
7 0 11 0.6538 0.0000
7 0 12 -0.7294 0.0000
7 0 13 -2.6971 0.0000
7 0 14 -1.2811 0.0000
7 0 15 -0.5408 0.0000
7 1 0 -2.9136 0.0000
7 1 1 11.1725 0.0000
7 1 2 -12.9111 0.0000
7 1 3 -2.1217 0.0000
7 1 4 -3.0351 0.0000
7 1 5 4.7925 0.0000
7 1 6 1.5790 0.0000
7 1 7 -2.2213 0.0000
7 1 8 -1.5176 0.0000
7 1 9 -0.3341 0.0000
7 1 10 0.2372 0.0000
7 1 11 -1.6266 0.0000
7 1 12 -1.2330 0.0000
7 1 13 0.5802 0.0000
7 1 14 2.2571 0.0000
7 1 15 -1.3113 0.0000
7 2 1 -2.0692 0.0000
7 2 2 4.6745 0.0000
7 2 3 2.4950 0.0000
7 2 4 2.1806 0.0000
7 2 5 2.5564 0.0000
7 2 6 2.7366 0.0000
7 2 7 0.1495 0.0000
7 2 8 -2.5809 0.0000
7 2 9 1.3576 0.0000
7 2 10 3.0528 0.0000
7 2 11 0.8509 0.0000
7 2 12 -1.0852 0.0000
7 2 13 0.7326 0.0000
7 2 14 -0.3770 0.0000
7 2 15 -1.2208 0.0000
7 3 0 1.9155 0.0000
7 3 1 1.8077 0.0000
7 3 2 11.7740 0.0000
7 3 3 -6.0840 0.0000
7 3 4 -2.3938 0.0000
7 3 5 2.9015 0.0000
7 3 6 -2.5713 0.0000
7 3 7 0.4130 0.0000
7 3 8 0.6397 0.0000
7 3 9 -1.3345 0.0000
7 3 10 2.1089 0.0000
7 3 11 0.3536 0.0000
7 3 12 0.7811 0.0000
7 3 13 1.2639 0.0000
7 3 14 -1.2842 0.0000
7 3 15 -1.3900 0.0000
7 4 1 7.7231 0.0000
7 4 2 -6.2043 0.0000
7 4 3 -9.5435 0.0000
7 4 4 0.1649 0.0000
7 4 5 1.9823 0.0000
7 4 6 2.6382 0.0000
7 4 7 1.4273 0.0000
7 4 8 1.0029 0.0000
7 4 9 -1.0250 0.0000
7 4 10 0.2107 0.0000
7 4 11 1.0381 0.0000
7 4 12 0.2217 0.0000
7 4 13 -0.8850 0.0000
7 4 14 0.2100 0.0000
7 4 15 0.5020 0.0000
7 5 0 -1.3286 0.0000
7 5 1 3.5394 0.0000
7 5 2 0.6787 0.0000
7 5 3 7.0082 0.0000
7 5 4 4.8628 0.0000
7 5 5 3.9407 0.0000
7 5 6 0.9064 0.0000
7 5 7 -0.3071 0.0000
7 5 8 3.1303 0.0000
7 5 9 1.7181 0.0000
7 5 10 0.6791 0.0000
7 5 11 1.3657 0.0000
7 5 12 0.9414 0.0000
7 5 13 -0.7032 0.0000
7 5 14 1.1031 0.0000
7 5 15 3.4504 0.0000
7 6 1 -9.4411 0.0000
7 6 2 1.6528 0.0000
7 6 3 3.9539 0.0000
7 6 4 -3.7067 0.0000
7 6 5 -1.1205 0.0000
7 6 6 0.5116 0.0000
7 6 7 -5.9649 0.0000
7 6 8 -0.5822 0.0000
7 6 9 2.0504 0.0000
7 6 10 -0.3549 0.0000
7 6 11 1.7020 0.0000
7 6 12 1.5672 0.0000
7 6 13 0.6352 0.0000
7 6 14 -0.0817 0.0000
7 6 15 -1.5440 0.0000
7 7 0 -23.0437 0.0000
7 7 1 -2.7206 0.0000
7 7 2 4.3514 0.0000
7 7 3 -6.5207 0.0000
7 7 4 -7.7195 0.0000
7 7 5 -1.8712 0.0000
7 7 6 2.5209 0.0000
7 7 7 -0.8440 0.0000
7 7 8 1.7201 0.0000
7 7 9 -2.8341 0.0000
7 7 10 -0.5031 0.0000
7 7 11 0.3131 0.0000
7 7 12 -1.3912 0.0000
7 7 13 -1.0347 0.0000
7 7 14 -0.4118 0.0000
7 7 15 -0.0820 0.0000
8 0 0 -6.9054 0.0000
8 0 1 -11.0761 0.0000
8 0 2 -18.5143 0.0000
8 0 3 -1.4057 0.0000
8 0 4 10.5606 0.0000
8 0 5 9.4330 0.0000
8 0 6 -0.0214 0.0000
8 0 7 -3.3292 0.0000
8 0 8 -1.5639 0.0000
8 0 9 1.5456 0.0000
8 0 10 0.3791 0.0000
8 0 11 -3.4037 0.0000
8 0 12 -0.1163 0.0000
8 0 13 -0.8860 0.0000
8 0 14 -2.2258 0.0000
8 0 15 -2.1483 0.0000
8 1 1 -5.7294 0.0000
8 1 2 -1.5829 0.0000
8 1 3 -0.0932 0.0000
8 1 4 1.9339 0.0000
8 1 5 -0.5532 0.0000
8 1 6 -0.3451 0.0000
8 1 7 -1.6414 0.0000
8 1 8 0.2353 0.0000
8 1 9 -0.5386 0.0000
8 1 10 0.1618 0.0000
8 1 11 2.2819 0.0000
8 1 12 0.3486 0.0000
8 1 13 -0.0372 0.0000
8 1 14 0.8325 0.0000
8 1 15 0.4445 0.0000
8 2 0 -0.2214 0.0000
8 2 1 -6.7172 0.0000
8 2 2 3.6796 0.0000
8 2 3 6.9144 0.0000
8 2 4 1.5993 0.0000
8 2 5 -3.8287 0.0000
8 2 6 0.9368 0.0000
8 2 7 1.7064 0.0000
8 2 8 -1.5662 0.0000
8 2 9 -1.2553 0.0000
8 2 10 1.6664 0.0000
8 2 11 0.9402 0.0000
8 2 12 0.1772 0.0000
8 2 13 1.1560 0.0000
8 2 14 -0.7695 0.0000
8 2 15 0.0044 0.0000
8 3 1 14.0441 0.0000
8 3 2 0.0427 0.0000
8 3 3 -3.1388 0.0000
8 3 4 -1.8957 0.0000
8 3 5 3.8790 0.0000
8 3 6 1.1291 0.0000
8 3 7 1.1468 0.0000
8 3 8 -2.7629 0.0000
8 3 9 0.0779 0.0000
8 3 10 2.2221 0.0000
8 3 11 0.3907 0.0000
8 3 12 -0.0148 0.0000
8 3 13 0.9696 0.0000
8 3 14 0.5926 0.0000
8 3 15 0.8716 0.0000
8 4 0 -6.1373 0.0000
8 4 1 -3.2515 0.0000
8 4 2 0.1889 0.0000
8 4 3 5.8264 0.0000
8 4 4 4.5446 0.0000
8 4 5 3.3698 0.0000
8 4 6 -2.0615 0.0000
8 4 7 -4.5506 0.0000
8 4 8 0.0924 0.0000
8 4 9 0.6260 0.0000
8 4 10 -3.4820 0.0000
8 4 11 0.9218 0.0000
8 4 12 1.3707 0.0000
8 4 13 0.6587 0.0000
8 4 14 0.5953 0.0000
8 4 15 1.8562 0.0000
8 5 1 1.1433 0.0000
8 5 2 1.4217 0.0000
8 5 3 -2.3029 0.0000
8 5 4 2.7618 0.0000
8 5 5 0.5526 0.0000
8 5 6 -4.4183 0.0000
8 5 7 -2.3341 0.0000
8 5 8 -2.3337 0.0000
8 5 9 -2.4353 0.0000
8 5 10 0.8246 0.0000
8 5 11 1.4298 0.0000
8 5 12 0.0045 0.0000
8 5 13 0.1533 0.0000
8 5 14 0.2511 0.0000
8 5 15 -1.5549 0.0000
8 6 0 -1.7783 0.0000
8 6 1 3.2614 0.0000
8 6 2 -5.0675 0.0000
8 6 3 -3.5313 0.0000
8 6 4 -2.9433 0.0000
8 6 5 -4.2118 0.0000
8 6 6 3.1661 0.0000
8 6 7 0.6210 0.0000
8 6 8 -1.0588 0.0000
8 6 9 -3.6548 0.0000
8 6 10 -1.2211 0.0000
8 6 11 1.3494 0.0000
8 6 12 -0.2760 0.0000
8 6 13 -0.1164 0.0000
8 6 14 -1.4530 0.0000
8 6 15 -2.0667 0.0000
8 7 1 4.1253 0.0000
8 7 2 -3.0835 0.0000
8 7 3 -3.8904 0.0000
8 7 4 -0.5764 0.0000
8 7 5 0.0214 0.0000
8 7 6 -0.1163 0.0000
8 7 7 3.2769 0.0000
8 7 8 -1.8288 0.0000
8 7 9 -0.2205 0.0000
8 7 10 2.5930 0.0000
8 7 11 0.1011 0.0000
8 7 12 0.7632 0.0000
8 7 13 -0.4793 0.0000
8 7 14 0.8285 0.0000
8 8 0 4.6479 0.0000
8 8 1 -0.8854 0.0000
8 8 2 4.8546 0.0000
8 8 3 -2.0411 0.0000
8 8 4 -0.1852 0.0000
8 8 5 3.0567 0.0000
8 8 6 0.2570 0.0000
8 8 7 2.7151 0.0000
8 8 8 -1.1447 0.0000
8 8 9 0.1049 0.0000
8 8 10 1.2523 0.0000
8 8 11 2.1657 0.0000
8 8 12 0.1861 0.0000
8 8 13 0.2036 0.0000
8 8 14 0.3421 0.0000
9 0 1 -2.1923 0.0000
9 0 2 2.9935 0.0000
9 0 3 -2.5548 0.0000
9 0 4 -2.8456 0.0000
9 0 5 0.1316 0.0000
9 0 6 5.6734 0.0000
9 0 7 2.3955 0.0000
9 0 8 0.5709 0.0000
9 0 9 0.6857 0.0000
9 0 10 0.9689 0.0000
9 0 11 -0.9965 0.0000
9 0 12 0.1684 0.0000
9 0 13 0.4746 0.0000
9 0 14 0.4798 0.0000
9 0 15 1.0501 0.0000
9 1 0 4.2635 0.0000
9 1 1 2.4856 0.0000
9 1 2 -5.3391 0.0000
9 1 3 -0.9524 0.0000
9 1 4 1.2001 0.0000
9 1 5 1.5562 0.0000
9 1 6 3.8166 0.0000
9 1 7 -0.6740 0.0000
9 1 8 -2.9392 0.0000
9 1 9 0.5836 0.0000
9 1 10 0.7605 0.0000
9 1 11 0.8482 0.0000
9 1 12 -0.6414 0.0000
9 1 13 -1.1040 0.0000
9 1 14 -0.2095 0.0000
9 1 15 2.1078 0.0000
9 2 1 -4.7044 0.0000
9 2 2 -0.4791 0.0000
9 2 3 5.3221 0.0000
9 2 4 -0.3631 0.0000
9 2 5 1.4579 0.0000
9 2 6 -0.8735 0.0000
9 2 7 -1.8837 0.0000
9 2 8 -0.0097 0.0000
9 2 9 1.0738 0.0000
9 2 10 -0.0323 0.0000
9 2 11 -1.3160 0.0000
9 2 12 0.0795 0.0000
9 2 13 0.2071 0.0000
9 2 14 0.0871 0.0000
9 2 15 0.1310 0.0000
9 3 0 4.1130 0.0000
9 3 1 -3.6363 0.0000
9 3 2 -3.3281 0.0000
9 3 3 -1.6006 0.0000
9 3 4 5.3560 0.0000
9 3 5 1.9459 0.0000
9 3 6 -0.4619 0.0000
9 3 7 0.8464 0.0000
9 3 8 0.9915 0.0000
9 3 9 -1.5650 0.0000
9 3 10 -0.8848 0.0000
9 3 11 -0.9236 0.0000
9 3 12 -3.3132 0.0000
9 3 13 -0.1765 0.0000
9 3 14 0.4006 0.0000
9 3 15 -0.4766 0.0000
9 4 1 -4.1170 0.0000
9 4 2 1.7505 0.0000
9 4 3 -1.6559 0.0000
9 4 4 0.6614 0.0000
9 4 5 -0.8497 0.0000
9 4 6 -3.3866 0.0000
9 4 7 -3.6406 0.0000
9 4 8 -0.7266 0.0000
9 4 9 -2.1722 0.0000
9 4 10 -0.5844 0.0000
9 4 11 0.8532 0.0000
9 4 12 0.7186 0.0000
9 4 13 -1.0715 0.0000
9 4 14 -2.6047 0.0000
9 4 15 -1.5148 0.0000
9 5 0 9.2052 0.0000
9 5 1 5.1657 0.0000
9 5 2 -10.2093 0.0000
9 5 3 -2.9243 0.0000
9 5 4 1.6410 0.0000
9 5 5 -1.8422 0.0000
9 5 6 0.4540 0.0000
9 5 7 -1.7963 0.0000
9 5 8 1.7882 0.0000
9 5 9 2.9588 0.0000
9 5 10 -1.8277 0.0000
9 5 11 -2.5997 0.0000
9 5 12 -0.5536 0.0000
9 5 13 -0.2242 0.0000
9 5 14 -0.8939 0.0000
9 5 15 0.0166 0.0000
9 6 1 1.0193 0.0000
9 6 2 0.9106 0.0000
9 6 3 4.7519 0.0000
9 6 4 0.7201 0.0000
9 6 5 -0.4651 0.0000
9 6 6 -2.0482 0.0000
9 6 7 -2.2261 0.0000
9 6 8 1.7616 0.0000
9 6 9 2.0388 0.0000
9 6 10 -0.5595 0.0000
9 6 11 -0.1185 0.0000
9 6 12 1.0765 0.0000
9 6 13 1.4172 0.0000
9 6 14 -1.4721 0.0000
9 7 0 3.7556 0.0000
9 7 1 -3.2367 0.0000
9 7 2 3.2475 0.0000
9 7 3 -1.5666 0.0000
9 7 4 -0.2235 0.0000
9 7 5 1.8102 0.0000
9 7 6 -2.2511 0.0000
9 7 7 1.3682 0.0000
9 7 8 0.0791 0.0000
9 7 9 2.1143 0.0000
9 7 10 -0.0516 0.0000
9 7 11 -1.0347 0.0000
9 7 12 0.0326 0.0000
9 7 13 0.6212 0.0000
9 7 14 -0.0481 0.0000
9 8 1 4.4563 0.0000
9 8 2 -0.0602 0.0000
9 8 3 -2.3090 0.0000
9 8 4 2.3894 0.0000
9 8 5 2.1497 0.0000
9 8 6 -1.1037 0.0000
9 8 7 -3.4738 0.0000
9 8 8 -0.3145 0.0000
9 8 9 1.0841 0.0000
9 8 10 0.9215 0.0000
9 8 11 0.4258 0.0000
9 8 12 -2.1541 0.0000
9 8 13 -0.5995 0.0000
9 8 14 -1.3323 0.0000
9 9 0 4.8524 0.0000
9 9 1 0.7733 0.0000
9 9 2 -7.5916 0.0000
9 9 3 0.2105 0.0000
9 9 4 3.7867 0.0000
9 9 5 1.6412 0.0000
9 9 6 -0.0717 0.0000
9 9 7 -3.2275 0.0000
9 9 8 -0.1176 0.0000
9 9 9 3.7109 0.0000
9 9 10 -1.9126 0.0000
9 9 11 -2.9992 0.0000
9 9 12 -0.2522 0.0000
9 9 13 0.5437 0.0000
9 9 14 0.2830 0.0000
10 0 0 -10.6132 0.0000
10 0 1 5.6581 0.0000
10 0 2 -2.8928 0.0000
10 0 3 -4.0712 0.0000
10 0 4 0.3530 0.0000
10 0 5 3.3980 0.0000
10 0 6 -0.5934 0.0000
10 0 7 -1.9334 0.0000
10 0 8 -3.7823 0.0000
10 0 9 0.6236 0.0000
10 0 10 -0.2205 0.0000
10 0 11 2.9845 0.0000
10 0 12 1.8165 0.0000
10 0 13 0.4260 0.0000
10 0 14 -2.4566 0.0000
10 1 1 -6.9813 0.0000
10 1 2 -1.5493 0.0000
10 1 3 5.5289 0.0000
10 1 4 -0.3038 0.0000
10 1 5 -0.6053 0.0000
10 1 6 -1.2101 0.0000
10 1 7 -1.5542 0.0000
10 1 8 -0.7499 0.0000
10 1 9 -0.1702 0.0000
10 1 10 -0.1606 0.0000
10 1 11 -0.4979 0.0000
10 1 12 -1.1367 0.0000
10 1 13 -0.0908 0.0000
10 1 14 0.4800 0.0000
10 2 0 0.8710 0.0000
10 2 1 -2.4318 0.0000
10 2 2 8.6931 0.0000
10 2 3 0.5889 0.0000
10 2 4 -1.2604 0.0000
10 2 5 -0.8594 0.0000
10 2 6 -0.1964 0.0000
10 2 7 0.2266 0.0000
10 2 8 2.2943 0.0000
10 2 9 -1.2067 0.0000
10 2 10 -0.8486 0.0000
10 2 11 -2.4327 0.0000
10 2 12 -1.6824 0.0000
10 2 13 1.5943 0.0000
10 2 14 2.4857 0.0000
10 3 1 -2.5567 0.0000
10 3 2 3.6005 0.0000
10 3 3 1.7407 0.0000
10 3 4 -0.1202 0.0000
10 3 5 0.4315 0.0000
10 3 6 1.9134 0.0000
10 3 7 0.3771 0.0000
10 3 8 -1.1723 0.0000
10 3 9 -2.4721 0.0000
10 3 10 0.4169 0.0000
10 3 11 0.4522 0.0000
10 3 12 0.6840 0.0000
10 3 13 0.8741 0.0000
10 3 14 1.7753 0.0000
10 4 0 -11.2988 0.0000
10 4 1 4.0675 0.0000
10 4 2 2.9842 0.0000
10 4 3 0.0505 0.0000
10 4 4 1.6226 0.0000
10 4 5 3.6460 0.0000
10 4 6 -2.7677 0.0000
10 4 7 -3.1417 0.0000
10 4 8 2.9057 0.0000
10 4 9 2.7188 0.0000
10 4 10 -2.4965 0.0000
10 4 11 -2.2701 0.0000
10 4 12 3.0756 0.0000
10 4 13 -0.1290 0.0000
10 4 14 0.2758 0.0000
10 5 1 2.1338 0.0000
10 5 2 -3.7071 0.0000
10 5 3 1.8291 0.0000
10 5 4 3.9317 0.0000
10 5 5 -1.3099 0.0000
10 5 6 -2.1241 0.0000
10 5 7 -2.0859 0.0000
10 5 8 -0.0047 0.0000
10 5 9 0.3482 0.0000
10 5 10 -0.9963 0.0000
10 5 11 -0.0557 0.0000
10 5 12 -0.4995 0.0000
10 5 13 1.2688 0.0000
10 5 14 -0.5607 0.0000
10 6 0 -0.3492 0.0000
10 6 1 -6.8733 0.0000
10 6 2 1.5564 0.0000
10 6 3 3.6400 0.0000
10 6 4 2.4704 0.0000
10 6 5 0.0073 0.0000
10 6 6 -2.9628 0.0000
10 6 7 1.8800 0.0000
10 6 8 -0.7266 0.0000
10 6 9 -0.1859 0.0000
10 6 10 1.1726 0.0000
10 6 11 -2.2308 0.0000
10 6 12 -2.0404 0.0000
10 6 13 -1.8755 0.0000
10 6 14 0.3338 0.0000
10 7 1 -6.1260 0.0000
10 7 2 1.2597 0.0000
10 7 3 -0.0597 0.0000
10 7 4 -2.4206 0.0000
10 7 5 -1.1354 0.0000
10 7 6 -0.4097 0.0000
10 7 7 -1.5457 0.0000
10 7 8 1.5967 0.0000
10 7 9 1.1892 0.0000
10 7 10 0.2400 0.0000
10 7 11 -0.0397 0.0000
10 7 12 0.2212 0.0000
10 7 13 0.0064 0.0000
10 7 14 -0.4583 0.0000
10 8 0 -4.0551 0.0000
10 8 1 0.4765 0.0000
10 8 2 0.7746 0.0000
10 8 3 1.9775 0.0000
10 8 4 0.1261 0.0000
10 8 5 0.7661 0.0000
10 8 6 -0.7291 0.0000
10 8 7 -1.5582 0.0000
10 8 8 1.1646 0.0000
10 8 9 0.1470 0.0000
10 8 10 -1.2522 0.0000
10 8 11 -1.1596 0.0000
10 8 12 -0.0033 0.0000
10 8 13 -1.1121 0.0000
10 8 14 0.4318 0.0000
10 9 1 -3.0811 0.0000
10 9 2 -1.0511 0.0000
10 9 3 2.8659 0.0000
10 9 4 -0.5271 0.0000
10 9 5 -0.1252 0.0000
10 9 6 -0.9897 0.0000
10 9 7 0.9669 0.0000
10 9 8 0.1628 0.0000
10 9 9 -0.3464 0.0000
10 9 10 -3.0932 0.0000
10 9 11 -2.7422 0.0000
10 9 12 1.9882 0.0000
10 9 13 0.1394 0.0000
10 10 0 -0.3142 0.0000
10 10 1 -0.5318 0.0000
10 10 2 3.6940 0.0000
10 10 3 2.1498 0.0000
10 10 4 -0.7402 0.0000
10 10 5 -0.2780 0.0000
10 10 6 -1.1205 0.0000
10 10 7 -1.1847 0.0000
10 10 8 -0.2284 0.0000
10 10 9 0.1376 0.0000
10 10 10 2.4989 0.0000
10 10 11 1.9078 0.0000
10 10 12 -1.1347 0.0000
10 10 13 2.4976 0.0000
11 0 1 6.5217 0.0000
11 0 2 1.3941 0.0000
11 0 3 -5.6387 0.0000
11 0 4 -1.4758 0.0000
11 0 5 -0.7237 0.0000
11 0 6 1.0829 0.0000
11 0 7 2.5429 0.0000
11 0 8 -0.1684 0.0000
11 0 9 -2.1725 0.0000
11 0 10 0.8034 0.0000
11 0 11 -0.0069 0.0000
11 0 12 -1.9610 0.0000
11 0 13 2.6126 0.0000
11 0 14 -1.4826 0.0000
11 1 0 10.4685 0.0000
11 1 1 -2.5764 0.0000
11 1 2 1.4855 0.0000
11 1 3 -1.1398 0.0000
11 1 4 -1.9673 0.0000
11 1 5 1.3843 0.0000
11 1 6 4.5276 0.0000
11 1 7 -0.6458 0.0000
11 1 8 0.1446 0.0000
11 1 9 0.8183 0.0000
11 1 10 -0.5337 0.0000
11 1 11 -2.2041 0.0000
11 1 12 -0.6111 0.0000
11 1 13 0.1471 0.0000
11 1 14 -0.2327 0.0000
11 2 1 3.4407 0.0000
11 2 2 -2.2253 0.0000
11 2 3 0.1332 0.0000
11 2 4 3.5516 0.0000
11 2 5 0.4464 0.0000
11 2 6 -0.7024 0.0000
11 2 7 1.2888 0.0000
11 2 8 1.4737 0.0000
11 2 9 -0.7508 0.0000
11 2 10 -0.0385 0.0000
11 2 11 1.2975 0.0000
11 2 12 0.3825 0.0000
11 2 13 -2.0216 0.0000
11 2 14 -0.1915 0.0000
11 3 0 -13.9235 0.0000
11 3 1 2.9053 0.0000
11 3 2 2.6503 0.0000
11 3 3 -0.6043 0.0000
11 3 4 -1.5553 0.0000
11 3 5 0.9145 0.0000
11 3 6 -0.0439 0.0000
11 3 7 2.6647 0.0000
11 3 8 0.5430 0.0000
11 3 9 -0.9137 0.0000
11 3 10 0.1104 0.0000
11 3 11 1.1966 0.0000
11 3 12 0.3979 0.0000
11 3 13 -0.1511 0.0000
11 3 14 0.7880 0.0000
11 4 1 6.8084 0.0000
11 4 2 -1.8513 0.0000
11 4 3 -0.3731 0.0000
11 4 4 3.2245 0.0000
11 4 5 0.2653 0.0000
11 4 6 -0.8356 0.0000
11 4 7 1.9899 0.0000
11 4 8 0.4190 0.0000
11 4 9 0.4693 0.0000
11 4 10 -1.9903 0.0000
11 4 11 -2.7354 0.0000
11 4 12 -1.6629 0.0000
11 4 13 -1.9796 0.0000
11 4 14 -1.6181 0.0000
11 5 0 5.2969 0.0000
11 5 1 -3.3294 0.0000
11 5 2 1.4906 0.0000
11 5 3 1.8113 0.0000
11 5 4 -0.6518 0.0000
11 5 5 -1.2257 0.0000
11 5 6 -1.3825 0.0000
11 5 7 0.8789 0.0000
11 5 8 -1.4141 0.0000
11 5 9 -1.3592 0.0000
11 5 10 -0.5023 0.0000
11 5 11 -0.0630 0.0000
11 5 12 -0.2795 0.0000
11 5 13 -0.9001 0.0000
11 5 14 1.2197 0.0000
11 6 1 -2.5761 0.0000
11 6 2 3.2517 0.0000
11 6 3 0.2871 0.0000
11 6 4 -0.8506 0.0000
11 6 5 0.0036 0.0000
11 6 6 1.0874 0.0000
11 6 7 2.6692 0.0000
11 6 8 1.6971 0.0000
11 6 9 1.6865 0.0000
11 6 10 -1.4983 0.0000
11 6 11 2.3501 0.0000
11 6 12 1.4712 0.0000
11 6 13 -1.3979 0.0000
11 6 14 0.8913 0.0000
11 7 0 -3.8087 0.0000
11 7 1 2.1937 0.0000
11 7 2 4.2508 0.0000
11 7 3 1.7589 0.0000
11 7 4 -3.3372 0.0000
11 7 5 -2.8128 0.0000
11 7 6 0.1057 0.0000
11 7 7 -0.6941 0.0000
11 7 8 2.5445 0.0000
11 7 9 -0.3945 0.0000
11 7 10 -0.7631 0.0000
11 7 11 1.1843 0.0000
11 7 12 1.0318 0.0000
11 7 13 1.0322 0.0000
11 8 1 -0.6844 0.0000
11 8 2 -0.2697 0.0000
11 8 3 -1.5658 0.0000
11 8 4 -0.2893 0.0000
11 8 5 2.2281 0.0000
11 8 6 2.2488 0.0000
11 8 7 3.3019 0.0000
11 8 8 -0.8555 0.0000
11 8 9 -1.2172 0.0000
11 8 10 -0.9781 0.0000
11 8 11 -1.6645 0.0000
11 8 12 0.0225 0.0000
11 8 13 -0.5051 0.0000
11 9 0 -1.3217 0.0000
11 9 1 0.5046 0.0000
11 9 2 0.1684 0.0000
11 9 3 -1.5876 0.0000
11 9 4 -0.0919 0.0000
11 9 5 1.1684 0.0000
11 9 6 0.3616 0.0000
11 9 7 -0.3245 0.0000
11 9 8 -1.5986 0.0000
11 9 9 0.8101 0.0000
11 9 10 3.5355 0.0000
11 9 11 0.6660 0.0000
11 9 12 0.8147 0.0000
11 9 13 1.1063 0.0000
11 10 1 0.3244 0.0000
11 10 2 -1.6581 0.0000
11 10 3 1.0009 0.0000
11 10 4 3.1141 0.0000
11 10 5 -0.1116 0.0000
11 10 6 2.4600 0.0000
11 10 7 0.4387 0.0000
11 10 8 1.1793 0.0000
11 10 9 -1.8431 0.0000
11 10 10 1.0757 0.0000
11 10 11 1.2584 0.0000
11 10 12 -0.1369 0.0000
11 11 0 0.6373 0.0000
11 11 1 -1.6263 0.0000
11 11 2 -1.7550 0.0000
11 11 3 2.4707 0.0000
11 11 4 0.6074 0.0000
11 11 5 -0.7763 0.0000
11 11 6 2.4824 0.0000
11 11 7 2.3605 0.0000
11 11 8 -2.2695 0.0000
11 11 9 0.0715 0.0000
11 11 10 3.1437 0.0000
11 11 11 2.7112 0.0000
11 11 12 2.8304 0.0000
12 0 0 15.0805 0.0000
12 0 1 -0.2748 0.0000
12 0 2 0.1953 0.0000
12 0 3 0.0292 0.0000
12 0 4 -0.1908 0.0000
12 0 5 1.6674 0.0000
12 0 6 2.3128 0.0000
12 0 7 -0.7264 0.0000
12 0 8 -4.2724 0.0000
12 0 9 1.2348 0.0000
12 0 10 -0.7813 0.0000
12 0 11 -1.7455 0.0000
12 0 12 0.7927 0.0000
12 0 13 1.3871 0.0000
12 0 14 0.1236 0.0000
12 1 1 0.6243 0.0000
12 1 2 -3.4531 0.0000
12 1 3 1.0394 0.0000
12 1 4 1.6230 0.0000
12 1 5 -0.7964 0.0000
12 1 6 -0.1972 0.0000
12 1 7 -1.6943 0.0000
12 1 8 -0.7030 0.0000
12 1 9 -0.0075 0.0000
12 1 10 -0.0100 0.0000
12 1 11 1.1091 0.0000
12 1 12 0.1420 0.0000
12 1 13 -1.5031 0.0000
12 1 14 1.2455 0.0000
12 2 0 -1.0795 0.0000
12 2 1 2.8212 0.0000
12 2 2 -3.7080 0.0000
12 2 3 3.5251 0.0000
12 2 4 0.3845 0.0000
12 2 5 -3.0389 0.0000
12 2 6 0.2302 0.0000
12 2 7 1.7461 0.0000
12 2 8 -0.4659 0.0000
12 2 9 -1.6398 0.0000
12 2 10 1.7927 0.0000
12 2 11 -0.1629 0.0000
12 2 12 -0.3830 0.0000
12 2 13 1.1427 0.0000
12 2 14 1.2473 0.0000
12 3 1 1.4997 0.0000
12 3 2 0.7273 0.0000
12 3 3 -2.7619 0.0000
12 3 4 -1.8664 0.0000
12 3 5 1.6704 0.0000
12 3 6 -0.1808 0.0000
12 3 7 0.1714 0.0000
12 3 8 -2.7687 0.0000
12 3 9 -1.6881 0.0000
12 3 10 0.0897 0.0000
12 3 11 -1.2502 0.0000
12 3 12 -1.6783 0.0000
12 3 13 -0.9346 0.0000
12 3 14 1.3084 0.0000
12 4 0 3.8167 0.0000
12 4 1 -3.1177 0.0000
12 4 2 1.3287 0.0000
12 4 3 -0.7674 0.0000
12 4 4 -0.1736 0.0000
12 4 5 1.5088 0.0000
12 4 6 1.5133 0.0000
12 4 7 -0.6036 0.0000
12 4 8 0.0974 0.0000
12 4 9 -0.8946 0.0000
12 4 10 -3.3597 0.0000
12 4 11 0.1004 0.0000
12 4 12 -0.3585 0.0000
12 4 13 1.3259 0.0000
12 4 14 0.0100 0.0000
12 5 1 2.6725 0.0000
12 5 2 0.8862 0.0000
12 5 3 -3.1643 0.0000
12 5 4 0.1314 0.0000
12 5 5 0.5448 0.0000
12 5 6 0.1361 0.0000
12 5 7 -2.3879 0.0000
12 5 8 -1.0456 0.0000
12 5 9 1.0202 0.0000
12 5 10 0.2475 0.0000
12 5 11 1.2718 0.0000
12 5 12 -0.4407 0.0000
12 5 13 1.1043 0.0000
12 6 0 0.1390 0.0000
12 6 1 0.0989 0.0000
12 6 2 -2.2981 0.0000
12 6 3 1.7002 0.0000
12 6 4 0.4101 0.0000
12 6 5 -2.3028 0.0000
12 6 6 0.6858 0.0000
12 6 7 -0.4053 0.0000
12 6 8 1.5930 0.0000
12 6 9 0.2308 0.0000
12 6 10 -1.6812 0.0000
12 6 11 -1.0291 0.0000
12 6 12 -0.8717 0.0000
12 6 13 1.5358 0.0000
12 7 1 -0.2730 0.0000
12 7 2 1.4896 0.0000
12 7 3 0.5392 0.0000
12 7 4 -1.8366 0.0000
12 7 5 0.4178 0.0000
12 7 6 1.8108 0.0000
12 7 7 0.8808 0.0000
12 7 8 -0.3346 0.0000
12 7 9 -0.3388 0.0000
12 7 10 0.9189 0.0000
12 7 11 -0.4692 0.0000
12 7 12 -0.2782 0.0000
12 7 13 0.4576 0.0000
12 8 0 -2.3412 0.0000
12 8 1 1.9038 0.0000
12 8 2 1.5230 0.0000
12 8 3 -1.7675 0.0000
12 8 4 -0.3737 0.0000
12 8 5 1.5529 0.0000
12 8 6 1.2157 0.0000
12 8 7 0.9156 0.0000
12 8 8 0.7723 0.0000
12 8 9 1.0989 0.0000
12 8 10 1.3284 0.0000
12 8 11 -0.6174 0.0000
12 8 12 -0.0259 0.0000
12 8 13 -1.5870 0.0000
12 9 1 2.0843 0.0000
12 9 2 -0.2826 0.0000
12 9 3 0.9264 0.0000
12 9 4 0.4805 0.0000
12 9 5 -0.4933 0.0000
12 9 6 0.0329 0.0000
12 9 7 -2.0892 0.0000
12 9 8 -1.9813 0.0000
12 9 9 0.5919 0.0000
12 9 10 0.1452 0.0000
12 9 11 -0.6699 0.0000
12 9 12 -1.5404 0.0000
12 10 0 1.1102 0.0000
12 10 1 0.3838 0.0000
12 10 2 0.5146 0.0000
12 10 3 0.6720 0.0000
12 10 4 0.3046 0.0000
12 10 5 -1.9688 0.0000
12 10 6 1.2656 0.0000
12 10 7 0.9470 0.0000
12 10 8 1.5714 0.0000
12 10 9 1.5212 0.0000
12 10 10 -0.9737 0.0000
12 10 11 1.4134 0.0000
12 10 12 0.9022 0.0000
12 11 1 -1.4191 0.0000
12 11 2 0.6336 0.0000
12 11 3 -1.6978 0.0000
12 11 4 -1.5780 0.0000
12 11 5 1.1411 0.0000
12 11 6 2.3047 0.0000
12 11 7 0.4320 0.0000
12 11 8 -2.0551 0.0000
12 11 9 0.4710 0.0000
12 11 10 0.8952 0.0000
12 11 11 2.7713 0.0000
12 11 12 1.7858 0.0000
12 12 0 0.8791 0.0000
12 12 1 1.6920 0.0000
12 12 2 -0.0850 0.0000
12 12 3 -1.5956 0.0000
12 12 4 -1.9360 0.0000
12 12 5 0.9925 0.0000
12 12 6 -2.3738 0.0000
12 12 7 -0.0554 0.0000
12 12 8 0.8121 0.0000
12 12 9 -1.3375 0.0000
12 12 10 -2.7617 0.0000
12 12 11 -0.6873 0.0000
13 0 1 -0.7212 0.0000
13 0 2 0.5057 0.0000
13 0 3 2.9152 0.0000
13 0 4 -2.8381 0.0000
13 0 5 -0.3586 0.0000
13 0 6 1.9502 0.0000
13 0 7 1.8447 0.0000
13 0 8 0.2877 0.0000
13 0 9 1.7056 0.0000
13 0 10 1.3290 0.0000
13 0 11 2.3457 0.0000
13 0 12 0.2415 0.0000
13 0 13 -1.0296 0.0000
13 1 0 1.9143 0.0000
13 1 1 3.2803 0.0000
13 1 2 -3.7735 0.0000
13 1 3 0.6600 0.0000
13 1 4 1.0128 0.0000
13 1 5 -2.8721 0.0000
13 1 6 -0.7680 0.0000
13 1 7 -0.7070 0.0000
13 1 8 0.1424 0.0000
13 1 9 0.9201 0.0000
13 1 10 3.9330 0.0000
13 1 11 0.8434 0.0000
13 1 12 -0.6087 0.0000
13 1 13 0.5572 0.0000
13 2 1 -2.5581 0.0000
13 2 2 0.4567 0.0000
13 2 3 -0.8569 0.0000
13 2 4 0.6242 0.0000
13 2 5 0.7666 0.0000
13 2 6 -0.1454 0.0000
13 2 7 -1.2901 0.0000
13 2 8 -0.7014 0.0000
13 2 9 2.3462 0.0000
13 2 10 1.2418 0.0000
13 2 11 -0.2935 0.0000
13 2 12 0.5955 0.0000
13 2 13 -0.3684 0.0000
13 3 0 4.2544 0.0000
13 3 1 0.9336 0.0000
13 3 2 1.4040 0.0000
13 3 3 -1.2491 0.0000
13 3 4 0.2198 0.0000
13 3 5 -1.2500 0.0000
13 3 6 -1.5310 0.0000
13 3 7 0.8590 0.0000
13 3 8 2.1083 0.0000
13 3 9 0.2522 0.0000
13 3 10 0.3706 0.0000
13 3 11 1.8004 0.0000
13 3 12 0.2567 0.0000
13 3 13 1.5155 0.0000
13 4 1 -0.2567 0.0000
13 4 2 -0.1338 0.0000
13 4 3 -1.9931 0.0000
13 4 4 1.3241 0.0000
13 4 5 4.3646 0.0000
13 4 6 1.9333 0.0000
13 4 7 -4.0296 0.0000
13 4 8 0.2772 0.0000
13 4 9 2.1887 0.0000
13 4 10 3.4197 0.0000
13 4 11 -0.3386 0.0000
13 4 12 -1.9493 0.0000
13 4 13 0.6964 0.0000
13 5 0 -1.0327 0.0000
13 5 1 0.8136 0.0000
13 5 2 -0.7481 0.0000
13 5 3 1.3224 0.0000
13 5 4 2.3495 0.0000
13 5 5 1.6451 0.0000
13 5 6 -1.7300 0.0000
13 5 7 -1.0040 0.0000
13 5 8 -0.1290 0.0000
13 5 9 1.1985 0.0000
13 5 10 1.9610 0.0000
13 5 11 0.0707 0.0000
13 5 12 1.6744 0.0000
13 5 13 -0.8128 0.0000
13 6 1 -1.7433 0.0000
13 6 2 -1.8612 0.0000
13 6 3 1.3681 0.0000
13 6 4 2.5745 0.0000
13 6 5 3.5493 0.0000
13 6 6 -2.9866 0.0000
13 6 7 -0.5123 0.0000
13 6 8 -0.1930 0.0000
13 6 9 0.0325 0.0000
13 6 10 2.9869 0.0000
13 6 11 1.6115 0.0000
13 6 12 -0.1799 0.0000
13 6 13 -1.0683 0.0000
13 7 0 -1.8252 0.0000
13 7 1 -0.2095 0.0000
13 7 2 2.5780 0.0000
13 7 3 -0.0434 0.0000
13 7 4 0.1087 0.0000
13 7 5 0.6889 0.0000
13 7 6 1.3906 0.0000
13 7 7 -0.2784 0.0000
13 7 8 0.2409 0.0000
13 7 9 1.5042 0.0000
13 7 10 0.5183 0.0000
13 7 11 0.8313 0.0000
13 7 12 -1.4635 0.0000
13 8 1 0.4270 0.0000
13 8 2 -0.3474 0.0000
13 8 3 1.1130 0.0000
13 8 4 0.6831 0.0000
13 8 5 0.3908 0.0000
13 8 6 0.0387 0.0000
13 8 7 -2.8477 0.0000
13 8 8 0.6377 0.0000
13 8 9 -1.4353 0.0000
13 8 10 -1.2789 0.0000
13 8 11 -2.8749 0.0000
13 8 12 -2.0762 0.0000
13 9 0 -0.7946 0.0000
13 9 1 -0.2968 0.0000
13 9 2 -1.9323 0.0000
13 9 3 0.4834 0.0000
13 9 4 1.1451 0.0000
13 9 5 1.9117 0.0000
13 9 6 -0.1006 0.0000
13 9 7 -2.7113 0.0000
13 9 8 1.0006 0.0000
13 9 9 -0.4166 0.0000
13 9 10 -1.4757 0.0000
13 9 11 0.0922 0.0000
13 9 12 -1.9655 0.0000
13 10 1 -0.2181 0.0000
13 10 2 -0.4665 0.0000
13 10 3 -0.7150 0.0000
13 10 4 2.4762 0.0000
13 10 5 1.7846 0.0000
13 10 6 0.3242 0.0000
13 10 7 1.1439 0.0000
13 10 8 0.9698 0.0000
13 10 9 0.5533 0.0000
13 10 10 -0.5556 0.0000
13 10 11 1.0045 0.0000
13 11 0 -0.8660 0.0000
13 11 1 -0.7131 0.0000
13 11 2 0.3606 0.0000
13 11 3 1.1526 0.0000
13 11 4 0.5462 0.0000
13 11 5 0.7407 0.0000
13 11 6 -0.7120 0.0000
13 11 7 -0.4434 0.0000
13 11 8 1.6559 0.0000
13 11 9 0.8609 0.0000
13 11 10 -1.0359 0.0000
13 11 11 -0.5988 0.0000
13 12 1 -2.4313 0.0000
13 12 2 -0.0036 0.0000
13 12 3 0.5561 0.0000
13 12 4 -1.0277 0.0000
13 12 5 -1.0539 0.0000
13 12 6 -1.4960 0.0000
13 12 7 -2.3693 0.0000
13 12 8 -2.5410 0.0000
13 12 9 1.5541 0.0000
13 12 10 -0.8106 0.0000
13 13 0 -1.8529 0.0000
13 13 1 -2.3695 0.0000
13 13 2 1.8904 0.0000
13 13 3 1.0551 0.0000
13 13 4 1.3592 0.0000
13 13 5 -0.3253 0.0000
13 13 6 1.1925 0.0000
13 13 7 -0.5130 0.0000
13 13 8 -0.5073 0.0000
13 13 9 0.0442 0.0000
13 13 10 2.0224 0.0000
14 0 0 -3.4581 0.0000
14 0 1 0.8612 0.0000
14 0 2 -0.8765 0.0000
14 0 3 -0.2344 0.0000
14 0 4 -0.0600 0.0000
14 0 5 0.4389 0.0000
14 0 6 -0.1729 0.0000
14 0 7 -0.0422 0.0000
14 0 8 1.2783 0.0000
14 0 9 1.6598 0.0000
14 0 10 2.6365 0.0000
14 0 11 -0.0560 0.0000
14 0 12 0.0199 0.0000
14 0 13 0.7327 0.0000
14 1 1 2.0888 0.0000
14 1 2 0.2813 0.0000
14 1 3 -1.8124 0.0000
14 1 4 2.1008 0.0000
14 1 5 -0.4266 0.0000
14 1 6 -1.1289 0.0000
14 1 7 -3.2061 0.0000
14 1 8 -2.0702 0.0000
14 1 9 -0.2741 0.0000
14 1 10 -2.7136 0.0000
14 1 11 -0.7955 0.0000
14 1 12 1.4850 0.0000
14 1 13 3.3244 0.0000
14 2 0 1.1008 0.0000
14 2 1 0.3430 0.0000
14 2 2 -0.3352 0.0000
14 2 3 -1.2836 0.0000
14 2 4 0.9828 0.0000
14 2 5 -1.3713 0.0000
14 2 6 -1.9239 0.0000
14 2 7 0.6669 0.0000
14 2 8 2.2707 0.0000
14 2 9 -0.4613 0.0000
14 2 10 0.8118 0.0000
14 2 11 1.2409 0.0000
14 2 12 0.0474 0.0000
14 2 13 0.1768 0.0000
14 3 1 -2.3914 0.0000
14 3 2 1.4902 0.0000
14 3 3 1.2711 0.0000
14 3 4 -0.9701 0.0000
14 3 5 0.4530 0.0000
14 3 6 0.8802 0.0000
14 3 7 -0.5585 0.0000
14 3 8 0.8202 0.0000
14 3 9 -1.9752 0.0000
14 3 10 2.9462 0.0000
14 3 11 0.8658 0.0000
14 3 12 -3.3220 0.0000
14 3 13 -1.1765 0.0000
14 4 0 -2.5771 0.0000
14 4 1 0.4813 0.0000
14 4 2 2.5579 0.0000
14 4 3 -0.3001 0.0000
14 4 4 -0.8131 0.0000
14 4 5 0.7272 0.0000
14 4 6 -0.5954 0.0000
14 4 7 -0.0806 0.0000
14 4 8 -0.1094 0.0000
14 4 9 3.3784 0.0000
14 4 10 1.2697 0.0000
14 4 11 -1.0051 0.0000
14 4 12 -0.7500 0.0000
14 4 13 -4.1250 0.0000
14 5 1 0.4210 0.0000
14 5 2 -0.7700 0.0000
14 5 3 2.2243 0.0000
14 5 4 0.5753 0.0000
14 5 5 -0.6072 0.0000
14 5 6 -1.7296 0.0000
14 5 7 0.6594 0.0000
14 5 8 0.1668 0.0000
14 5 9 -0.4351 0.0000
14 5 10 -1.9868 0.0000
14 5 11 -1.5458 0.0000
14 5 12 0.8532 0.0000
14 6 0 2.2960 0.0000
14 6 1 -0.2087 0.0000
14 6 2 -0.4111 0.0000
14 6 3 -0.5740 0.0000
14 6 4 0.5435 0.0000
14 6 5 -1.2561 0.0000
14 6 6 -0.2402 0.0000
14 6 7 1.0111 0.0000
14 6 8 -0.0003 0.0000
14 6 9 0.4980 0.0000
14 6 10 -1.5772 0.0000
14 6 11 0.4076 0.0000
14 6 12 -0.4342 0.0000
14 7 1 -1.5985 0.0000
14 7 2 0.8137 0.0000
14 7 3 1.7191 0.0000
14 7 4 -0.0543 0.0000
14 7 5 -2.0023 0.0000
14 7 6 -1.6347 0.0000
14 7 7 -1.4961 0.0000
14 7 8 -0.3346 0.0000
14 7 9 0.6668 0.0000
14 7 10 0.0608 0.0000
14 7 11 -0.2475 0.0000
14 7 12 0.4020 0.0000
14 8 0 0.3108 0.0000
14 8 1 -0.7936 0.0000
14 8 2 -2.8733 0.0000
14 8 3 1.6371 0.0000
14 8 4 -0.0556 0.0000
14 8 5 -0.7876 0.0000
14 8 6 0.6283 0.0000
14 8 7 2.4027 0.0000
14 8 8 1.8937 0.0000
14 8 9 1.0704 0.0000
14 8 10 1.4060 0.0000
14 8 11 0.6870 0.0000
14 8 12 -1.8342 0.0000
14 9 1 -2.0430 0.0000
14 9 2 -1.2242 0.0000
14 9 3 -0.8996 0.0000
14 9 4 -0.5339 0.0000
14 9 5 0.5517 0.0000
14 9 6 -0.7149 0.0000
14 9 7 0.0593 0.0000
14 9 8 0.7069 0.0000
14 9 9 0.5931 0.0000
14 9 10 1.0563 0.0000
14 9 11 0.7049 0.0000
14 10 0 2.1056 0.0000
14 10 1 0.5595 0.0000
14 10 2 -1.3244 0.0000
14 10 3 -1.9183 0.0000
14 10 4 -1.6290 0.0000
14 10 5 -1.1731 0.0000
14 10 6 0.1436 0.0000
14 10 7 1.7716 0.0000
14 10 8 1.1864 0.0000
14 10 9 2.2355 0.0000
14 10 10 3.1925 0.0000
14 10 11 -1.3561 0.0000
14 11 1 -1.1533 0.0000
14 11 2 0.3976 0.0000
14 11 3 1.7209 0.0000
14 11 4 -0.7417 0.0000
14 11 5 -1.2533 0.0000
14 11 6 -1.0247 0.0000
14 11 7 1.1996 0.0000
14 11 8 0.1555 0.0000
14 11 9 -1.2505 0.0000
14 11 10 0.6661 0.0000
14 12 0 0.8097 0.0000
14 12 1 0.4684 0.0000
14 12 2 0.8723 0.0000
14 12 3 -0.5636 0.0000
14 12 4 -0.7493 0.0000
14 12 5 -0.7192 0.0000
14 12 6 0.6669 0.0000
14 12 7 0.2897 0.0000
14 12 8 -1.5111 0.0000
14 12 9 -1.6185 0.0000
14 12 10 1.4453 0.0000
14 13 1 0.9849 0.0000
14 13 2 -1.5760 0.0000
14 13 3 1.1651 0.0000
14 13 4 2.6900 0.0000
14 13 5 0.9744 0.0000
14 13 6 0.1411 0.0000
14 13 7 3.1813 0.0000
14 13 8 2.6786 0.0000
14 13 9 -1.4072 0.0000
14 14 0 2.3368 0.0000
14 14 1 -0.4849 0.0000
14 14 2 -3.1975 0.0000
14 14 3 0.2184 0.0000
14 14 4 -0.3362 0.0000
14 14 5 -2.5874 0.0000
14 14 6 1.4494 0.0000
14 14 7 0.6244 0.0000
14 14 8 -1.3606 0.0000
15 0 1 -0.9090 0.0000
15 0 2 1.7523 0.0000
15 0 3 -0.2516 0.0000
15 0 4 0.6228 0.0000
15 0 5 2.7131 0.0000
15 0 6 -0.4417 0.0000
15 0 7 1.9189 0.0000
15 0 8 -1.5442 0.0000
15 0 9 -2.6177 0.0000
15 0 10 0.5780 0.0000
15 0 11 -1.7194 0.0000
15 0 12 -1.5750 0.0000
15 1 0 -1.0116 0.0000
15 1 1 1.3709 0.0000
15 1 2 1.8654 0.0000
15 1 3 -1.9658 0.0000
15 1 4 1.8744 0.0000
15 1 5 -0.1512 0.0000
15 1 6 -1.2399 0.0000
15 1 7 -1.7412 0.0000
15 1 8 -2.2361 0.0000
15 1 9 0.7498 0.0000
15 1 10 2.1430 0.0000
15 1 11 -0.6729 0.0000
15 1 12 -0.1268 0.0000
15 2 1 -0.5084 0.0000
15 2 2 -2.5733 0.0000
15 2 3 0.9700 0.0000
15 2 4 0.7976 0.0000
15 2 5 -1.5009 0.0000
15 2 6 2.1435 0.0000
15 2 7 2.1813 0.0000
15 2 8 1.1715 0.0000
15 2 9 -1.3822 0.0000
15 2 10 0.1050 0.0000
15 2 11 -0.5096 0.0000
15 2 12 -2.7500 0.0000
15 3 0 0.2803 0.0000
15 3 1 -1.4556 0.0000
15 3 2 1.0234 0.0000
15 3 3 0.7568 0.0000
15 3 4 -2.8778 0.0000
15 3 5 3.0807 0.0000
15 3 6 0.1386 0.0000
15 3 7 -1.4511 0.0000
15 3 8 0.0772 0.0000
15 3 9 -0.3883 0.0000
15 3 10 -0.5531 0.0000
15 3 11 1.4899 0.0000
15 3 12 -1.3919 0.0000
15 4 1 -0.5004 0.0000
15 4 2 -0.5969 0.0000
15 4 3 0.6094 0.0000
15 4 4 -2.3886 0.0000
15 4 5 -1.8582 0.0000
15 4 6 1.1010 0.0000
15 4 7 0.2032 0.0000
15 4 8 -1.5519 0.0000
15 4 9 -0.0672 0.0000
15 4 10 -5.2231 0.0000
15 4 11 -3.1687 0.0000
15 4 12 -0.5852 0.0000
15 5 0 0.7550 0.0000
15 5 1 1.2421 0.0000
15 5 2 -1.3421 0.0000
15 5 3 -0.6698 0.0000
15 5 4 3.4830 0.0000
15 5 5 0.3752 0.0000
15 5 6 -0.8658 0.0000
15 5 7 -0.6680 0.0000
15 5 8 0.0327 0.0000
15 5 9 -0.7391 0.0000
15 5 10 -0.7198 0.0000
15 5 11 -1.0797 0.0000
15 5 12 -2.2600 0.0000
15 6 1 -2.3929 0.0000
15 6 2 0.6439 0.0000
15 6 3 0.1495 0.0000
15 6 4 -0.5438 0.0000
15 6 5 -1.4029 0.0000
15 6 6 -0.8926 0.0000
15 6 7 -2.1110 0.0000
15 6 8 -1.2882 0.0000
15 6 9 0.0524 0.0000
15 6 10 1.1812 0.0000
15 6 11 -0.3518 0.0000
15 7 0 -2.3965 0.0000
15 7 1 -0.5842 0.0000
15 7 2 1.1914 0.0000
15 7 3 1.6508 0.0000
15 7 4 0.1766 0.0000
15 7 5 0.8683 0.0000
15 7 6 0.8684 0.0000
15 7 7 1.9766 0.0000
15 7 8 -0.5563 0.0000
15 7 9 1.0738 0.0000
15 7 10 0.5121 0.0000
15 7 11 -0.4390 0.0000
15 8 1 -0.4693 0.0000
15 8 2 -0.9600 0.0000
15 8 3 0.0594 0.0000
15 8 4 0.1983 0.0000
15 8 5 1.4290 0.0000
15 8 6 3.5981 0.0000
15 8 7 -0.3546 0.0000
15 8 8 1.3990 0.0000
15 8 9 0.4812 0.0000
15 8 10 -2.3266 0.0000
15 8 11 0.2131 0.0000
15 9 0 1.0575 0.0000
15 9 1 -0.4753 0.0000
15 9 2 -0.4925 0.0000
15 9 3 -0.7502 0.0000
15 9 4 0.4978 0.0000
15 9 5 1.0664 0.0000
15 9 6 -0.6269 0.0000
15 9 7 -0.3881 0.0000
15 9 8 -1.3701 0.0000
15 9 9 -2.1412 0.0000
15 9 10 2.3662 0.0000
15 9 11 -1.2646 0.0000
15 10 1 -0.8878 0.0000
15 10 2 -0.4815 0.0000
15 10 3 1.8962 0.0000
15 10 4 0.7759 0.0000
15 10 5 1.2007 0.0000
15 10 6 0.0364 0.0000
15 10 7 4.4423 0.0000
15 10 8 -0.1071 0.0000
15 10 9 -0.2516 0.0000
15 10 10 -1.4755 0.0000
15 11 0 -0.7885 0.0000
15 11 1 -0.7640 0.0000
15 11 2 2.1023 0.0000
15 11 3 0.4432 0.0000
15 11 4 2.3646 0.0000
15 11 5 0.1233 0.0000
15 11 6 0.7710 0.0000
15 11 7 1.3012 0.0000
15 11 8 -0.9681 0.0000
15 11 9 1.1340 0.0000
15 11 10 -0.6167 0.0000
15 12 1 -0.6124 0.0000
15 12 2 -2.1419 0.0000
15 12 3 -1.6601 0.0000
15 12 4 0.1206 0.0000
15 12 5 1.6778 0.0000
15 12 6 1.4674 0.0000
15 12 7 -0.7015 0.0000
15 12 8 1.3558 0.0000
15 12 9 -2.7270 0.0000
15 13 0 0.0625 0.0000
15 13 1 0.2016 0.0000
15 13 2 -2.9338 0.0000
15 13 3 -0.4953 0.0000
15 13 4 -0.3144 0.0000
15 13 5 -0.4742 0.0000
15 13 6 -1.5072 0.0000
15 13 7 -1.0137 0.0000
15 13 8 -1.6727 0.0000
15 14 1 0.1523 0.0000
15 14 2 1.5982 0.0000
15 14 3 -0.4771 0.0000
15 14 4 -1.3271 0.0000
15 14 5 -0.8929 0.0000
15 14 6 1.3984 0.0000
15 14 7 -1.8846 0.0000
15 15 0 -2.9093 0.0000
15 15 1 -0.9935 0.0000
15 15 2 0.9223 0.0000
15 15 3 -1.5631 0.0000
15 15 4 0.2894 0.0000
15 15 5 2.7556 0.0000
15 15 6 -4.4324 0.0000
16 0 0 -0.5658 0.0000
16 0 1 -0.0038 0.0000
16 0 2 -1.2308 0.0000
16 0 3 -2.2340 0.0000
16 0 4 -0.5037 0.0000
16 0 5 1.1746 0.0000
16 0 6 1.6221 0.0000
16 0 7 -1.0825 0.0000
16 0 8 -0.4791 0.0000
16 0 9 2.2889 0.0000
16 0 10 2.4410 0.0000
16 0 11 -3.1940 0.0000
16 0 12 -0.3502 0.0000
16 1 1 2.1986 0.0000
16 1 2 -0.9709 0.0000
16 1 3 -0.4977 0.0000
16 1 4 2.2466 0.0000
16 1 5 0.6791 0.0000
16 1 6 0.3797 0.0000
16 1 7 -0.0835 0.0000
16 1 8 -2.9897 0.0000
16 1 9 1.0149 0.0000
16 1 10 -2.5398 0.0000
16 1 11 2.0853 0.0000
16 1 12 2.2512 0.0000
16 2 0 1.4315 0.0000
16 2 1 -2.0788 0.0000
16 2 2 0.0059 0.0000
16 2 3 0.8515 0.0000
16 2 4 0.5284 0.0000
16 2 5 1.1728 0.0000
16 2 6 -0.3098 0.0000
16 2 7 -0.8888 0.0000
16 2 8 0.4505 0.0000
16 2 9 -0.0566 0.0000
16 2 10 -1.7231 0.0000
16 2 11 2.7550 0.0000
16 2 12 -2.1376 0.0000
16 3 1 1.6301 0.0000
16 3 2 0.7645 0.0000
16 3 3 -1.7911 0.0000
16 3 4 -1.0454 0.0000
16 3 5 0.2287 0.0000
16 3 6 -0.9630 0.0000
16 3 7 1.5093 0.0000
16 3 8 -0.3281 0.0000
16 3 9 -0.2118 0.0000
16 3 10 -0.3120 0.0000
16 3 11 1.3012 0.0000
16 4 0 -1.0412 0.0000
16 4 1 2.1839 0.0000
16 4 2 1.3939 0.0000
16 4 3 1.8541 0.0000
16 4 4 2.4715 0.0000
16 4 5 0.6209 0.0000
16 4 6 1.3111 0.0000
16 4 7 0.8943 0.0000
16 4 8 -1.1958 0.0000
16 4 9 0.8933 0.0000
16 4 10 2.8285 0.0000
16 4 11 -2.0020 0.0000
16 5 1 0.5346 0.0000
16 5 2 0.8133 0.0000
16 5 3 -0.5744 0.0000
16 5 4 0.3760 0.0000
16 5 5 1.5186 0.0000
16 5 6 0.5808 0.0000
16 5 7 -1.3034 0.0000
16 5 8 -0.7425 0.0000
16 5 9 -0.8618 0.0000
16 5 10 0.7614 0.0000
16 5 11 -0.6492 0.0000
16 6 0 -2.0361 0.0000
16 6 1 -1.3442 0.0000
16 6 2 -0.1744 0.0000
16 6 3 -1.3446 0.0000
16 6 4 -3.9512 0.0000
16 6 5 4.9963 0.0000
16 6 6 1.1541 0.0000
16 6 7 -1.0271 0.0000
16 6 8 0.4042 0.0000
16 6 9 0.0630 0.0000
16 6 10 3.3725 0.0000
16 6 11 3.0549 0.0000
16 7 1 2.5789 0.0000
16 7 2 -0.9983 0.0000
16 7 3 -1.0604 0.0000
16 7 4 2.0045 0.0000
16 7 5 0.5396 0.0000
16 7 6 -0.7551 0.0000
16 7 7 0.3586 0.0000
16 7 8 -1.6125 0.0000
16 7 9 -0.0976 0.0000
16 7 10 -0.4427 0.0000
16 8 0 -1.6571 0.0000
16 8 1 -2.1466 0.0000
16 8 2 -1.8732 0.0000
16 8 3 -1.3486 0.0000
16 8 4 0.1575 0.0000
16 8 5 -1.9442 0.0000
16 8 6 2.1306 0.0000
16 8 7 0.1938 0.0000
16 8 8 0.7628 0.0000
16 8 9 -0.7638 0.0000
16 8 10 1.2292 0.0000
16 9 1 1.9719 0.0000
16 9 2 0.2980 0.0000
16 9 3 -0.9714 0.0000
16 9 4 -0.6855 0.0000
16 9 5 -1.8817 0.0000
16 9 6 -0.0224 0.0000
16 9 7 -1.5291 0.0000
16 9 8 -1.6444 0.0000
16 9 9 -0.9488 0.0000
16 9 10 1.1920 0.0000
16 10 0 -1.0488 0.0000
16 10 1 -1.5297 0.0000
16 10 2 0.5730 0.0000
16 10 3 -1.2580 0.0000
16 10 4 0.7518 0.0000
16 10 5 2.8061 0.0000
16 10 6 0.7082 0.0000
16 10 7 1.1988 0.0000
16 10 8 -0.0170 0.0000
16 10 9 1.3325 0.0000
16 11 1 -0.3281 0.0000
16 11 2 0.9195 0.0000
16 11 3 -0.3490 0.0000
16 11 4 0.4660 0.0000
16 11 5 -1.0063 0.0000
16 11 6 -0.2498 0.0000
16 11 7 -2.6994 0.0000
16 11 8 -0.1057 0.0000
16 11 9 1.3728 0.0000
16 12 0 -0.4738 0.0000
16 12 1 0.3210 0.0000
16 12 2 -0.4618 0.0000
16 12 3 -0.5603 0.0000
16 12 4 -0.6987 0.0000
16 12 5 1.5126 0.0000
16 12 6 0.1606 0.0000
16 12 7 -0.5301 0.0000
16 12 8 -1.1048 0.0000
16 13 1 2.3833 0.0000
16 13 2 0.1364 0.0000
16 13 3 -1.0910 0.0000
16 13 4 0.3442 0.0000
16 13 5 -1.3987 0.0000
16 13 6 -2.2608 0.0000
16 13 7 0.6255 0.0000
16 14 0 -1.3927 0.0000
16 14 1 -0.6661 0.0000
16 14 2 0.8096 0.0000
16 14 3 0.5356 0.0000
16 14 4 1.7844 0.0000
16 14 5 0.5211 0.0000
16 14 6 -1.3821 0.0000
16 15 1 -1.2220 0.0000
16 15 2 -0.4787 0.0000
16 15 3 0.1329 0.0000
16 15 4 -0.4285 0.0000
16 15 5 1.8272 0.0000
16 16 0 1.5749 0.0000
16 16 1 1.0520 0.0000
16 16 2 -0.8424 0.0000
16 16 3 -0.2899 0.0000
16 16 4 -2.6072 0.0000
17 0 1 -1.0749 0.0000
17 0 2 1.0379 0.0000
17 0 3 -0.6668 0.0000
17 0 4 1.1867 0.0000
17 0 5 1.9213 0.0000
17 0 6 1.0814 0.0000
17 0 7 -2.2518 0.0000
17 0 8 -3.0689 0.0000
17 0 9 -0.3306 0.0000
17 0 10 0.4344 0.0000
17 0 11 1.5644 0.0000
17 1 0 -1.1173 0.0000
17 1 1 0.8947 0.0000
17 1 2 0.2086 0.0000
17 1 3 0.4748 0.0000
17 1 4 2.8691 0.0000
17 1 5 -1.0398 0.0000
17 1 6 -0.0998 0.0000
17 1 7 0.0588 0.0000
17 1 8 -2.3790 0.0000
17 1 9 1.7011 0.0000
17 1 10 -1.1192 0.0000
17 1 11 0.1977 0.0000
17 2 1 0.4097 0.0000
17 2 2 -0.3196 0.0000
17 2 3 0.2906 0.0000
17 2 4 -0.7834 0.0000
17 2 5 -0.4624 0.0000
17 2 6 -1.1294 0.0000
17 2 7 1.6242 0.0000
17 2 8 2.7597 0.0000
17 2 9 -1.5381 0.0000
17 2 10 -1.5829 0.0000
17 2 11 0.6789 0.0000
17 3 0 0.5552 0.0000
17 3 1 0.6611 0.0000
17 3 2 0.1748 0.0000
17 3 3 0.3540 0.0000
17 3 4 -1.7558 0.0000
17 3 5 -1.7909 0.0000
17 3 6 1.9595 0.0000
17 3 7 1.4882 0.0000
17 3 8 -0.5979 0.0000
17 3 9 -0.4657 0.0000
17 3 10 0.2427 0.0000
17 3 11 -0.5389 0.0000
17 4 1 0.0914 0.0000
17 4 2 2.4057 0.0000
17 4 3 0.7038 0.0000
17 4 4 1.5535 0.0000
17 4 5 1.1884 0.0000
17 4 6 -0.0071 0.0000
17 4 7 0.7714 0.0000
17 4 8 -0.1513 0.0000
17 4 9 -0.4702 0.0000
17 4 10 -0.5335 0.0000
17 4 11 -1.6815 0.0000
17 5 0 2.9802 0.0000
17 5 1 -1.1278 0.0000
17 5 2 -2.2769 0.0000
17 5 3 -1.3393 0.0000
17 5 4 -2.5762 0.0000
17 5 5 -2.4168 0.0000
17 5 6 -0.8878 0.0000
17 5 7 -0.8478 0.0000
17 5 8 2.7106 0.0000
17 5 9 1.1723 0.0000
17 5 10 0.0108 0.0000
17 6 1 -1.1316 0.0000
17 6 2 -1.9838 0.0000
17 6 3 0.4464 0.0000
17 6 4 1.7447 0.0000
17 6 5 -0.4689 0.0000
17 6 6 -0.4408 0.0000
17 6 7 2.3547 0.0000
17 6 8 -0.3214 0.0000
17 6 9 -1.2055 0.0000
17 6 10 -1.4210 0.0000
17 7 0 -1.0644 0.0000
17 7 1 -0.4013 0.0000
17 7 2 -1.1752 0.0000
17 7 3 2.2943 0.0000
17 7 4 2.5824 0.0000
17 7 5 -1.0155 0.0000
17 7 6 0.7921 0.0000
17 7 7 -0.6717 0.0000
17 7 8 -0.5364 0.0000
17 7 9 -0.4381 0.0000
17 7 10 -2.2111 0.0000
17 8 1 -0.4641 0.0000
17 8 2 -1.4444 0.0000
17 8 3 -0.2031 0.0000
17 8 4 1.8107 0.0000
17 8 5 0.5887 0.0000
17 8 6 0.7560 0.0000
17 8 7 -1.0553 0.0000
17 8 8 -0.9057 0.0000
17 8 9 -0.2691 0.0000
17 9 0 0.5476 0.0000
17 9 1 -0.3059 0.0000
17 9 2 -0.7685 0.0000
17 9 3 0.3592 0.0000
17 9 4 3.0740 0.0000
17 9 5 2.0822 0.0000
17 9 6 -1.1698 0.0000
17 9 7 -1.0859 0.0000
17 9 8 -1.0138 0.0000
17 9 9 1.0947 0.0000
17 10 1 -1.3189 0.0000
17 10 2 -0.3794 0.0000
17 10 3 -1.4413 0.0000
17 10 4 0.3196 0.0000
17 10 5 2.0878 0.0000
17 10 6 1.1787 0.0000
17 10 7 0.5897 0.0000
17 10 8 -1.1371 0.0000
17 10 9 0.6161 0.0000
17 11 0 -0.9406 0.0000
17 11 1 -0.1954 0.0000
17 11 2 0.0510 0.0000
17 11 3 1.5690 0.0000
17 11 4 0.8808 0.0000
17 11 5 1.0681 0.0000
17 11 6 0.3930 0.0000
17 11 7 -0.7543 0.0000
17 11 8 1.2162 0.0000
17 12 1 -0.4480 0.0000
17 12 2 0.5497 0.0000
17 12 3 -0.2470 0.0000
17 12 4 -0.1470 0.0000
17 12 5 -0.7963 0.0000
17 12 6 -0.9580 0.0000
17 12 7 0.4252 0.0000
17 13 0 0.3348 0.0000
17 13 1 1.7499 0.0000
17 13 2 1.4717 0.0000
17 13 3 2.5778 0.0000
17 13 4 0.9850 0.0000
17 13 5 -1.4107 0.0000
17 13 6 -1.5638 0.0000
17 14 1 -1.6768 0.0000
17 14 2 0.6176 0.0000
17 14 3 2.9810 0.0000
17 14 4 -0.1751 0.0000
17 14 5 -0.7514 0.0000
17 15 0 2.6230 0.0000
17 15 1 0.1273 0.0000
17 15 2 -1.0538 0.0000
17 15 3 0.4078 0.0000
17 15 4 -0.0616 0.0000
17 16 1 0.0003 0.0000
18 0 0 -0.9081 0.0000
18 0 1 1.7926 0.0000
18 0 2 0.7406 0.0000
18 0 3 -0.6298 0.0000
18 0 4 0.2632 0.0000
18 0 5 1.6919 0.0000
18 0 6 0.7495 0.0000
18 0 7 0.1903 0.0000
18 0 8 -1.0308 0.0000
18 0 9 2.2152 0.0000
18 0 10 0.7833 0.0000
18 1 1 -0.0840 0.0000
18 1 2 -0.5854 0.0000
18 1 3 0.0725 0.0000
18 1 4 -0.5753 0.0000
18 1 5 -0.7578 0.0000
18 1 6 -0.3344 0.0000
18 1 7 1.9219 0.0000
18 1 8 0.5337 0.0000
18 1 9 -1.4704 0.0000
18 1 10 -0.5220 0.0000
18 2 0 -1.6773 0.0000
18 2 1 -0.4304 0.0000
18 2 2 1.1046 0.0000
18 2 3 -1.1959 0.0000
18 2 4 -1.3131 0.0000
18 2 5 0.9985 0.0000
18 2 6 1.0729 0.0000
18 2 7 1.0481 0.0000
18 2 8 0.5436 0.0000
18 2 9 -0.9018 0.0000
18 2 10 0.1151 0.0000
18 3 1 -1.2399 0.0000
18 3 2 0.3762 0.0000
18 3 3 0.2923 0.0000
18 3 4 -1.9214 0.0000
18 3 5 -0.0037 0.0000
18 3 6 3.7448 0.0000
18 3 7 -1.9975 0.0000
18 3 8 -0.5864 0.0000
18 3 9 -0.5341 0.0000
18 3 10 1.8789 0.0000
18 4 0 -1.4916 0.0000
18 4 1 -0.6776 0.0000
18 4 2 -0.3419 0.0000
18 4 3 1.2461 0.0000
18 4 4 1.0661 0.0000
18 4 5 -1.3929 0.0000
18 4 6 1.4138 0.0000
18 4 7 0.8910 0.0000
18 4 8 1.6747 0.0000
18 4 9 1.6360 0.0000
18 4 10 0.4318 0.0000
18 5 1 -1.2023 0.0000
18 5 2 -0.0084 0.0000
18 5 3 1.2714 0.0000
18 5 4 -2.4222 0.0000
18 5 5 -1.2793 0.0000
18 5 6 2.0449 0.0000
18 5 7 -0.1159 0.0000
18 5 8 -1.6730 0.0000
18 5 9 -2.8124 0.0000
18 5 10 -3.1259 0.0000
18 6 0 -1.9080 0.0000
18 6 1 -1.2628 0.0000
18 6 2 -0.3249 0.0000
18 6 3 1.4918 0.0000
18 6 4 1.1876 0.0000
18 6 5 0.8621 0.0000
18 6 6 -0.4294 0.0000
18 6 7 -1.3379 0.0000
18 6 8 -0.3547 0.0000
18 6 9 -0.3359 0.0000
18 7 1 -0.6151 0.0000
18 7 2 1.7025 0.0000
18 7 3 1.0272 0.0000
18 7 4 -0.4953 0.0000
18 7 5 -0.5698 0.0000
18 7 6 -0.1725 0.0000
18 7 7 -0.3221 0.0000
18 7 8 -0.5569 0.0000
18 7 9 -0.1020 0.0000
18 8 0 -0.3910 0.0000
18 8 1 -0.9360 0.0000
18 8 2 -0.2700 0.0000
18 8 3 -0.5518 0.0000
18 8 4 2.3654 0.0000
18 8 5 -2.2338 0.0000
18 8 6 -1.6516 0.0000
18 8 7 -0.5505 0.0000
18 8 8 -2.6990 0.0000
18 9 1 0.4297 0.0000
18 9 2 -0.2811 0.0000
18 9 3 1.1828 0.0000
18 9 4 -0.7381 0.0000
18 9 5 2.1919 0.0000
18 9 6 0.6752 0.0000
18 9 7 -0.4663 0.0000
18 9 8 1.2084 0.0000
18 10 0 -0.6867 0.0000
18 10 1 -0.0187 0.0000
18 10 2 -0.7538 0.0000
18 10 3 0.0549 0.0000
18 10 4 -0.2030 0.0000
18 10 5 1.9483 0.0000
18 10 6 -0.7702 0.0000
18 10 7 -0.5288 0.0000
18 11 1 -1.4655 0.0000
18 11 2 0.0645 0.0000
18 11 3 1.9354 0.0000
18 11 4 1.2619 0.0000
18 11 5 0.7676 0.0000
18 11 6 0.1035 0.0000
18 11 7 2.5562 0.0000
18 12 0 -0.6444 0.0000
18 12 1 1.0887 0.0000
18 12 2 0.2128 0.0000
18 12 3 0.3315 0.0000
18 12 4 -0.6094 0.0000
18 12 5 -1.2809 0.0000
18 12 6 1.9134 0.0000
18 13 1 -0.6569 0.0000
18 13 2 -0.1705 0.0000
18 13 3 0.3001 0.0000
18 13 4 -0.0716 0.0000
18 13 5 -0.1060 0.0000
18 14 0 -0.7289 0.0000
18 14 1 -1.1677 0.0000
18 14 2 -1.4842 0.0000
18 14 3 -0.2269 0.0000
18 14 4 0.8023 0.0000
19 0 1 3.2415 0.0000
19 0 2 2.1931 0.0000
19 0 3 -0.8309 0.0000
19 0 4 -0.3185 0.0000
19 0 5 -5.1386 0.0000
19 0 6 -2.3726 0.0000
19 0 7 -1.7030 0.0000
19 0 8 -2.9263 0.0000
19 0 9 -1.0191 0.0000
19 1 0 -0.4324 0.0000
19 1 1 -0.6730 0.0000
19 1 2 0.4199 0.0000
19 1 3 -0.8669 0.0000
19 1 4 -2.2795 0.0000
19 1 5 1.5128 0.0000
19 1 6 0.2625 0.0000
19 1 7 2.0763 0.0000
19 1 8 1.6402 0.0000
19 1 9 -1.3011 0.0000
19 2 1 0.7619 0.0000
19 2 2 0.1194 0.0000
19 2 3 0.4155 0.0000
19 2 4 0.0170 0.0000
19 2 5 2.0857 0.0000
19 2 6 1.2663 0.0000
19 2 7 -2.4999 0.0000
19 2 8 -2.1500 0.0000
19 2 9 -0.5673 0.0000
19 3 0 -0.1269 0.0000
19 3 1 0.6391 0.0000
19 3 2 0.7080 0.0000
19 3 3 -0.1679 0.0000
19 3 4 -0.6763 0.0000
19 3 5 -0.4123 0.0000
19 3 6 0.2060 0.0000
19 3 7 0.4933 0.0000
19 3 8 2.0848 0.0000
19 3 9 0.7410 0.0000
19 4 1 0.0235 0.0000
19 4 2 -0.8790 0.0000
19 4 3 0.2560 0.0000
19 4 4 -1.0722 0.0000
19 4 5 0.3036 0.0000
19 4 6 1.6329 0.0000
19 4 7 2.4350 0.0000
19 4 8 1.2146 0.0000
19 4 9 -1.2002 0.0000
19 5 0 1.6707 0.0000
19 5 1 0.2751 0.0000
19 5 2 -0.5528 0.0000
19 5 3 -2.1956 0.0000
19 5 4 -2.4251 0.0000
19 5 5 0.0900 0.0000
19 5 6 -1.4598 0.0000
19 5 7 1.8335 0.0000
19 5 8 1.3164 0.0000
19 5 9 -0.9648 0.0000
19 6 1 0.0253 0.0000
19 6 2 0.2592 0.0000
19 6 3 -1.1186 0.0000
19 6 4 -0.7821 0.0000
19 6 5 -0.3089 0.0000
19 6 6 1.5311 0.0000
19 6 7 2.3154 0.0000
19 6 8 2.1238 0.0000
19 7 0 -0.0606 0.0000
19 7 1 0.0157 0.0000
19 7 2 -0.3609 0.0000
19 7 3 -0.8450 0.0000
19 7 4 -0.1798 0.0000
19 7 5 -0.4742 0.0000
19 7 6 -0.4426 0.0000
19 7 7 -0.2266 0.0000
19 7 8 -0.8722 0.0000
19 8 1 0.5142 0.0000
19 8 2 0.5120 0.0000
19 8 3 1.9314 0.0000
19 8 4 0.0339 0.0000
19 8 5 0.7585 0.0000
19 8 6 -1.6064 0.0000
19 8 7 2.0017 0.0000
19 9 0 -0.7909 0.0000
19 9 1 -1.0599 0.0000
19 9 2 0.4697 0.0000
19 9 3 -1.4043 0.0000
19 9 4 -0.6854 0.0000
19 9 5 2.5147 0.0000
19 9 6 -0.8608 0.0000
19 9 7 -0.2758 0.0000
19 10 1 0.6924 0.0000
19 10 2 -0.4597 0.0000
19 10 3 -1.3304 0.0000
19 10 4 0.6391 0.0000
19 10 5 -0.6662 0.0000
19 10 6 2.1139 0.0000
19 11 0 -0.0272 0.0000
19 11 1 -1.5565 0.0000
19 11 2 -2.1633 0.0000
19 11 3 1.7191 0.0000
19 11 4 0.6521 0.0000
19 11 5 -0.4997 0.0000
19 12 1 1.5359 0.0000
19 12 2 0.3802 0.0000
19 12 3 -0.0609 0.0000
19 12 4 -1.7112 0.0000
19 13 0 2.6469 0.0000
19 13 1 1.3009 0.0000
19 13 2 0.7175 0.0000
19 13 3 -1.1026 0.0000
20 0 0 2.3948 0.0000
20 0 1 -1.6383 0.0000
20 0 2 0.6130 0.0000
20 0 3 -0.5181 0.0000
20 0 4 -1.4888 0.0000
20 0 5 1.3464 0.0000
20 0 6 1.1268 0.0000
20 0 7 2.1199 0.0000
20 0 8 0.7466 0.0000
20 1 1 -0.5145 0.0000
20 1 2 -0.9200 0.0000
20 1 3 -0.1099 0.0000
20 1 4 1.4925 0.0000
20 1 5 2.3209 0.0000
20 1 6 -0.7842 0.0000
20 1 7 0.4021 0.0000
20 1 8 0.7660 0.0000
20 2 0 -1.1501 0.0000
20 2 1 0.2634 0.0000
20 2 2 -1.0939 0.0000
20 2 3 1.4254 0.0000
20 2 4 1.7240 0.0000
20 2 5 -0.2608 0.0000
20 2 6 0.6393 0.0000
20 2 7 -0.0364 0.0000
20 2 8 -0.2046 0.0000
20 3 1 -0.6737 0.0000
20 3 2 -0.8539 0.0000
20 3 3 -0.5257 0.0000
20 3 4 -0.5614 0.0000
20 3 5 -1.8468 0.0000
20 3 6 -2.1122 0.0000
20 3 7 2.3939 0.0000
20 3 8 0.4265 0.0000
20 4 0 0.7368 0.0000
20 4 1 -0.2768 0.0000
20 4 2 -0.7035 0.0000
20 4 3 -0.8104 0.0000
20 4 4 -0.4960 0.0000
20 4 5 1.0030 0.0000
20 4 6 -0.2964 0.0000
20 4 7 0.3863 0.0000
20 4 8 -0.2847 0.0000
20 5 1 -0.7569 0.0000
20 5 2 0.2171 0.0000
20 5 3 -0.1652 0.0000
20 5 4 0.7268 0.0000
20 5 5 -0.0936 0.0000
20 5 6 -2.3990 0.0000
20 5 7 -0.1307 0.0000
20 6 0 1.5269 0.0000
20 6 1 0.8561 0.0000
20 6 2 -0.2680 0.0000
20 6 3 -2.5347 0.0000
20 6 4 -0.8344 0.0000
20 6 5 -0.1108 0.0000
20 6 6 -0.3082 0.0000
20 6 7 -1.8964 0.0000
20 7 1 -0.4441 0.0000
20 7 2 -0.7126 0.0000
20 7 3 -0.5236 0.0000
20 7 4 0.9102 0.0000
20 7 5 -0.2628 0.0000
20 7 6 -0.5424 0.0000
20 7 7 1.0718 0.0000
20 8 0 1.0189 0.0000
20 8 1 0.7479 0.0000
20 8 2 -0.6641 0.0000
20 8 3 -1.5845 0.0000
20 8 4 -1.7437 0.0000
20 8 5 -0.2702 0.0000
20 8 6 -0.2455 0.0000
20 9 1 0.2667 0.0000
20 9 2 1.8179 0.0000
20 9 3 -2.6467 0.0000
20 9 4 -0.7499 0.0000
20 9 5 -0.4240 0.0000
20 10 0 1.8681 0.0000
20 10 1 0.6935 0.0000
20 10 2 -1.0577 0.0000
20 10 3 0.1394 0.0000
20 10 4 -2.6764 0.0000
20 10 5 -1.8494 0.0000
20 11 1 -2.3567 0.0000
20 11 2 -0.9325 0.0000
20 11 3 1.5671 0.0000
20 12 1 1.1619 0.0000
21 0 1 -0.7091 0.0000
21 0 2 -0.7285 0.0000
21 0 3 1.4520 0.0000
21 0 4 -0.1101 0.0000
21 0 5 0.1131 0.0000
21 0 6 -2.8948 0.0000
21 1 0 -2.1317 0.0000
21 1 1 1.1387 0.0000
21 1 2 0.4188 0.0000
21 1 3 0.6730 0.0000
21 1 4 0.5604 0.0000
21 1 5 -1.0836 0.0000
21 1 6 0.6680 0.0000
21 2 1 -0.9143 0.0000
21 2 2 0.7578 0.0000
21 2 3 -0.0296 0.0000
21 2 4 -0.3305 0.0000
21 2 5 -1.0120 0.0000
21 2 6 -0.8870 0.0000
21 3 0 0.9811 0.0000
21 3 1 0.9551 0.0000
21 3 2 0.1367 0.0000
21 3 3 -0.7476 0.0000
21 3 4 -0.7344 0.0000
21 3 5 -1.1954 0.0000
21 3 6 0.4274 0.0000
21 4 1 -0.9415 0.0000
21 4 2 0.0709 0.0000
21 4 3 0.7997 0.0000
21 4 4 -0.2005 0.0000
21 4 5 -0.5954 0.0000
21 4 6 -1.1273 0.0000
21 5 0 -0.4468 0.0000
21 5 1 -0.1358 0.0000
21 5 2 0.1804 0.0000
21 5 3 -0.6689 0.0000
21 5 4 -1.0699 0.0000
21 5 5 -1.5501 0.0000
21 5 6 -0.9240 0.0000
21 6 1 1.5767 0.0000
21 6 2 -0.2878 0.0000
21 6 3 0.2221 0.0000
21 6 4 0.9438 0.0000
21 6 5 -1.4561 0.0000
21 7 0 -0.8674 0.0000
21 7 1 -0.1872 0.0000
21 7 2 -0.3023 0.0000
21 7 3 1.1965 0.0000
21 7 4 0.2745 0.0000
21 7 5 -3.6455 0.0000
21 8 1 -0.6215 0.0000
21 8 2 2.1017 0.0000
21 8 3 -0.2445 0.0000
21 8 4 -1.4245 0.0000
21 9 0 -1.3313 0.0000
21 9 1 0.6873 0.0000
21 9 2 1.1685 0.0000
21 9 3 -0.1284 0.0000
21 10 1 -2.9114 0.0000
21 10 2 -3.9821 0.0000
22 0 0 -0.9925 0.0000
22 0 1 1.7789 0.0000
22 0 2 3.5169 0.0000
22 0 3 2.4191 0.0000
22 0 4 1.0095 0.0000
22 0 5 -2.0641 0.0000
22 1 1 -1.4027 0.0000
22 1 2 0.3817 0.0000
22 1 3 0.3516 0.0000
22 1 4 1.3143 0.0000
22 1 5 -1.1909 0.0000
22 2 0 -0.7539 0.0000
22 2 1 -0.0159 0.0000
22 2 2 0.8893 0.0000
22 2 3 1.3631 0.0000
22 2 4 0.4049 0.0000
22 2 5 0.2927 0.0000
22 3 1 1.0426 0.0000
22 3 2 -0.3001 0.0000
22 3 3 0.7461 0.0000
22 3 4 1.2042 0.0000
22 3 5 0.1999 0.0000
22 4 0 1.4176 0.0000
22 4 1 -0.8758 0.0000
22 4 2 -0.3411 0.0000
22 4 3 1.6120 0.0000
22 4 4 1.2033 0.0000
22 5 1 1.7018 0.0000
22 5 2 0.6183 0.0000
22 5 3 1.9315 0.0000
22 5 4 1.1113 0.0000
22 6 0 0.1535 0.0000
22 6 1 0.1469 0.0000
22 6 2 0.4583 0.0000
22 6 3 -1.6570 0.0000
22 6 4 -0.5519 0.0000
22 7 1 0.2263 0.0000
22 7 2 -0.3184 0.0000
22 7 3 -1.6717 0.0000
22 8 0 -0.9747 0.0000
22 8 1 -0.3419 0.0000
23 0 1 -0.6856 0.0000
23 0 2 -0.9945 0.0000
23 0 3 0.3517 0.0000
23 1 0 0.6108 0.0000
23 1 1 -1.2275 0.0000
23 1 2 -1.4512 0.0000
23 1 3 -1.2331 0.0000
23 2 1 0.5129 0.0000
23 2 2 1.2382 0.0000
23 2 3 0.4592 0.0000
23 3 0 1.2916 0.0000
23 3 1 0.0893 0.0000
23 3 2 -0.6343 0.0000
23 4 1 0.4717 0.0000
0 0 0 0.0 0.0
;
loop_
_refln_index_h
_refln_index_k
_refln_index_l
_refln_F_squared_meas
_refln_F_squared_sigma
_refln_scale_group_code
0 0 2 100449 1812.16 8
0 0 2 100439 1535.32 1
0 0 3 30214.8 1407.72 8
0 0 3 30949.6 1131.49 1
0 0 4 166282 3249.03 8
0 0 4 171309 2791.14 1
0 0 -5 10159.4 688.528 7
0 0 5 11160.7 828.968 1
0 0 5 10104 970.326 8
0 0 -6 135904 2664.07 7
0 0 -6 132714 3087.06 3
0 0 6 140712 3205.12 1
0 0 -7 25834.9 1533.34 3
0 0 7 28843.1 1620.74 1
0 0 -8 2157.64 630.527 3
0 0 8 3358.46 650.057 1
0 0 9 8720.54 1115.1 1
0 0 10 15587.7 1202.13 4
0 0 10 14541.2 1526.34 1
0 0 11 5801.92 794.581 5
0 0 11 7108.1 886.841 4
0 0 12 165.368 239.068 4
0 0 13 3697.51 644.677 4
0 0 14 3393.18 611.252 4
0 0 15 3366.64 548.142 4
0 0 16 985.941 277.988 4
1 0 1 2716.95 189.953 1
0 1 -1 2570.38 202.974 7
0 1 1 2431.42 216.217 8
0 1 1 2133.75 196.554 1
-1 0 -1 2601.01 152.227 9
1 0 1 2555.82 203.868 8
0 1 1 2577.9 175.555 7
0 -1 -1 2712.19 178.217 3
-1 0 1 2684.11 211.593 8
-1 0 1 2545.12 199.395 1
0 -1 1 2677.73 160.076 1
1 0 1 2604.35 219.752 2
1 0 -2 17.8652 58.7556 7
0 -1 2 178.37 96.0692 1
1 0 2 -45.1843 168.896 8
-1 0 2 -3.41447 118.498 1
0 1 -2 27.5408 98.4273 7
0 1 2 1.24774 145.872 8
-1 0 2 63.0185 156.99 8
0 1 2 93.108 129.561 1
1 0 2 105.947 111.312 1
-1 0 -2 6.68742 69.3274 9
0 -1 -2 98.7352 87.4045 3
1 0 -3 46058.7 885.885 7
1 0 3 45612.1 1469.73 8
1 0 3 44610.6 1213.73 1
-1 0 3 45668 1452.23 8
0 1 3 44157.3 1436.69 8
0 -1 3 44175.5 1180.08 1
-1 0 3 45258.8 1305.37 1
0 1 3 44671 1287.88 1
-1 0 -3 45111.8 956.257 9
0 1 -3 45725.7 1190.8 7
0 -1 -3 44607.4 1175.55 3
-1 0 4 3244.98 519.459 8
1 0 -4 3495.75 301.104 7
0 -1 -4 3326.34 373.699 3
-1 0 4 3769.69 463.397 1
-1 0 -4 4448.21 400.229 9
0 1 -4 4195.16 416.845 7
1 0 4 3926.61 443.8 1
0 -1 4 3651.83 433.167 1
0 1 4 2980.56 486.116 8
0 1 4 3982.37 481.306 1
1 0 4 4110.59 564.141 8
1 0 5 1829.52 504.002 8
0 1 -5 1436.35 278.023 7
0 1 5 1873.84 365.401 1
0 -1 -5 1573.27 325.175 3
-1 0 5 1752.49 370.719 1
1 0 -5 1099.89 199.046 7
0 1 5 1204.12 388.45 8
-1 0 -5 1410.99 223.669 9
1 0 5 1469.75 300.897 1
-1 0 5 902.858 370.268 8
0 -1 5 1614.71 332.585 1
0 -1 6 5874.66 661.633 1
-1 0 -6 5370.79 487.699 9
-1 0 6 5725.59 691.308 1
0 1 6 4846.41 719.822 8
1 0 -6 5321.02 669.278 3
1 0 -6 5232.66 438.943 7
0 1 -6 5800.46 566.109 7
1 0 6 6163.94 674.536 1
0 -1 -6 5534.99 624.184 3
0 1 6 5519.49 666.961 1
0 1 7 3621.17 604.743 1
-1 0 7 3717.91 628.524 1
0 1 -7 3352.01 474.182 7
1 0 -7 3052.03 540.583 3
0 -1 -7 4506 619.016 3
0 -1 7 3373.48 556.503 1
-1 0 -7 3243.06 529.853 7
-1 0 -7 3244.41 512.631 3
1 0 7 3232.85 548.666 1
-1 0 8 145.06 254.745 1
1 0 -8 165.022 274.367 3
0 1 -8 293.45 236.348 3
0 -1 -8 395.951 319.925 3
1 0 8 -364.913 318.81 1
0 1 8 -164.986 325.599 1
0 -1 8 -35.0261 207.199 1
-1 0 -8 -44.7866 199.18 3
0 1 -9 773.112 416.301 3
1 0 -9 1259.36 440.915 3
-1 0 9 1713.29 530.589 1
0 1 9 934.062 451.654 1
1 0 9 1296.91 459.677 1
0 -1 9 1052.17 411.807 1
-1 0 10 919.102 355.931 1
1 0 10 1101.68 370.567 4
0 -1 10 1310.99 462.754 1
-1 0 10 1059.72 344.782 4
1 0 10 637.798 350.556 1
0 -1 10 1310.61 419.878 5
0 -1 10 1475.17 379.278 4
0 1 10 1116.17 334.642 4
1 0 10 1532.66 423.07 5
0 -1 11 358.487 252.668 5
1 0 11 686.657 911.031 5
0 -1 11 -83.4553 327.353 4
0 1 11 201.074 245.503 4
-1 0 11 1138.8 546.468 1
0 1 11 -373.854 447.033 1
-1 0 11 -126.899 227.583 4
1 0 11 183.389 235.59 4
1 0 12 20.0319 216.317 5
0 -1 12 132.507 270.869 5
1 0 12 -65.3209 236.638 4
0 -1 12 195.545 280.817 4
-1 0 12 221.051 308.58 4
0 1 12 -44.6237 226.44 4
-1 0 13 501.425 337.939 4
0 -1 13 -286.232 335.156 4
1 0 13 11.3586 282.807 5
1 0 13 -400.432 297.912 4
0 1 13 -501.745 282.813 4
0 1 14 85.5628 202.649 4
-1 0 14 7.71027 225.217 4
1 0 14 -162.98 241.332 4
0 -1 14 84.2191 222.355 4
-1 0 15 58.3352 183.403 4
0 1 15 235.588 197.098 4
1 0 15 -84.6939 182.759 4
0 -1 15 -395.305 278.818 4
-1 0 16 24.758 159.302 4
0 1 16 28.1383 151.504 4
1 0 16 -78.2708 151.589 4
0 -1 16 -173.621 167.364 4
1 1 0 26599.6 610.518 7
1 1 1 66908.7 1235.05 1
1 1 -1 79785.1 1051.6 7
1 1 1 77404.5 1159.98 2
1 1 1 77670.9 1255.58 8
-1 -1 1 73270.8 1121.79 9
-1 -1 1 81012.3 1164.5 1
-1 -1 -2 55934.7 881.468 3
1 1 -2 64215.1 1100.32 7
1 1 2 56129.2 1413.45 8
-1 -1 -2 58714.9 1147.59 9
-1 -1 2 64262.8 1263.28 1
-1 1 2 61388.4 1341.38 1
1 -1 -2 56291.1 1300.81 3
1 -1 2 58146.7 1039.24 1
-1 1 2 59327.7 1380.55 8
1 1 2 61951.9 1319.52 1
1 1 3 81534.2 1739.32 1
1 1 3 77544.9 1922.78 8
1 -1 -3 81082.4 1729.66 3
-1 1 3 80242.6 1942.54 8
1 -1 3 78741.1 1522.35 1
1 1 -3 78271 1371.79 7
-1 -1 3 83134.4 1726.3 1
-1 1 3 80496 1788.07 1
1 1 4 1733.45 542.541 1
1 -1 4 207.166 149.541 1
-1 1 4 287.705 227.753 1
1 -1 -4 388.88 191.271 3
-1 1 4 449.673 286.73 8
-1 1 -4 304.31 82.9908 9
-1 -1 4 2375.3 532.298 1
1 1 -4 1468.67 313.752 7
-1 -1 -4 706.986 368.614 3
1 -1 -5 247.176 228.935 3
1 -1 -5 197.332 137.078 7
1 1 5 267.579 333.298 8
-1 -1 -5 59.7373 153.694 3
-1 1 -5 -421.98 266.006 7
-1 1 5 -126.74 249.129 8
-1 -1 5 664.289 303.681 1
-1 -1 -5 343.8 176.551 9
1 1 -5 -191.743 227.056 7
-1 1 5 530.543 281.388 1
-1 1 -5 245.071 102.655 9
1 -1 5 201.29 172.609 1
1 1 5 -56.7071 218.507 1
-1 1 6 14440 1279.8 8
-1 -1 -6 17719 980.161 9
1 1 -6 15056.5 839.476 7
-1 -1 6 17436 1156.86 1
1 -1 -6 16161.1 1103.48 3
1 1 6 14396.7 1302.49 8
1 -1 6 16701.8 1076.33 1
-1 1 -6 17416.7 1102.17 7
1 1 6 17591.7 1173.37 1
-1 1 6 15753.9 1151.9 1
-1 -1 -6 15874.5 973.991 3
1 1 7 1823.73 449.157 1
1 -1 7 2710.8 521.929 1
1 1 -7 1836.95 469.782 3
1 -1 -7 2180.64 511.901 3
-1 -1 7 2564.15 530.319 1
-1 1 -7 2133.13 436.266 7
-1 -1 -7 2315.83 429.756 3
-1 1 7 2300.61 529.393 1
-1 -1 8 660.714 399.122 1
-1 1 8 751.999 380.548 1
1 1 -8 997.346 549.632 3
1 1 8 713.732 398.597 1
-1 1 -8 -266.685 171.229 3
1 -1 -8 1006.69 391.996 3
1 -1 8 599.739 373.156 1
-1 -1 9 1631.11 561.894 1
1 1 9 1897.2 578.687 1
1 -1 9 1912.98 535.818 1
1 -1 -9 1387.7 602.541 3
1 1 -9 1683.29 499.153 3
-1 1 9 1684.88 616.328 1
1 -1 10 -209.432 239.432 4
1 -1 10 473.005 278.287 5
1 1 10 293.699 246.148 4
-1 -1 10 17.4237 273.831 1
-1 1 10 -143.586 224.718 4
-1 -1 10 429.57 336.279 4
1 1 10 790.702 315.236 5
-1 1 10 740.694 508.223 1
1 1 10 448.938 323.182 1
-1 1 11 -398.581 299.501 4
1 1 11 -382.875 264.821 4
-1 -1 11 351.56 228.233 4
1 1 11 178.677 243.39 5
-1 1 11 1178.27 702.181 1
1 1 11 618.985 396.537 1
1 -1 11 336.273 213.663 5
1 -1 11 -196.759 249.657 4
-1 -1 12 1424.04 442.57 4
1 -1 12 921.828 402.175 5
1 1 12 1308.52 440.783 4
1 -1 12 805.082 319.228 4
-1 1 12 1483.58 445.53 4
1 -1 13 -50.4472 247.464 4
1 -1 13 -97.9828 218.37 5
-1 1 13 69.5704 223.779 4
-1 -1 13 132.025 246.825 4
1 1 13 -51.2436 249.595 4
-1 1 14 -222.041 258.528 4
1 1 14 574.848 298.059 4
-1 -1 14 213.001 222.87 4
1 -1 14 52.5601 247.717 4
-1 1 15 101.978 203.93 4
1 1 15 -181.377 201.549 4
-1 -1 15 111.54 247.936 4
1 -1 15 272.14 252.135 4
-1 -1 16 107.728 166.42 4
1 1 16 413.005 182.455 4
-1 1 16 580.687 252.856 4
1 -1 16 52.3586 168.28 4
-2 0 0 494289 3008.2 9
2 0 0 485551 2793.04 3
0 -2 0 484642 2984.12 3
2 0 -1 837438 4454.72 3
-2 0 1 813169 4211.83 1
0 -2 -1 871956 3933.1 3
0 2 -1 856463 4493.31 7
0 2 1 836043 4031.71 7
0 2 1 868394 4637.13 8
2 0 1 810691 4548.41 2
0 -2 1 812898 3127.77 9
2 0 1 866570 3323 3
2 0 1 800992 3544.39 8
-2 0 -1 802237 3744.94 9
0 2 1 831914 4191.82 1
-2 0 1 882203 4428.62 9
2 0 2 389752 3601.1 2
0 -2 -2 383546 2943.33 3
0 2 2 378335 3361.05 1
2 0 2 398513 3540.58 8
0 2 2 381976 3651.77 8
-2 0 2 377105 3405.17 1
2 0 -2 387766 3597.12 3
0 -2 2 391004 2717.19 1
-2 0 2 388880 3551.39 8
0 -2 2 380660 1930.92 9
0 2 -2 389566 3343.24 7
-2 0 -2 382869 2580.71 9
2 0 2 388399 3077.24 1
2 0 3 10953.7 769.718 8
-2 0 3 11817.6 775.911 8
-2 0 -3 11760.1 520.914 9
2 0 -3 11249.1 728.064 3
0 2 -3 12370.5 700.957 7
0 -2 -3 11908.8 628.352 3
2 0 -3 9611.49 299.602 7
0 2 3 11454.2 757.581 8
0 2 3 11590.9 699.003 1
-2 0 3 12768.3 747.389 1
0 -2 3 11633.4 607.718 1
2 0 3 12709.5 684.648 1
2 0 4 109751 2675.99 8
2 0 4 109090 2302.63 1
0 2 4 107155 2375.43 1
-2 0 4 107369 2458 1
-2 0 -4 108289 1739.13 9
0 2 4 110477 2635.15 8
0 -2 -4 104895 2102.48 3
0 2 -4 108938 2215.64 7
0 -2 4 104932 2089.42 1
2 0 -4 109104 2473.41 3
-2 0 4 103448 2628.81 8
0 2 5 42752.9 1706.23 1
-2 0 5 45130.9 1746.26 1
2 0 5 44593.1 1653.55 1
0 2 5 41261.3 1889.49 8
0 -2 -5 43583.5 1539.52 3
0 -2 5 43090.8 1540.31 1
-2 0 -5 43721.8 1215.46 9
0 2 -5 41089.3 1483.94 7
2 0 -5 42171.3 1725.59 3
0 2 6 18682.8 1249.22 1
0 -2 6 18247.6 1127.16 1
-2 0 6 19615.9 1286.5 1
-2 0 -6 15240.9 763.166 9
0 2 6 16646.8 1374.64 8
0 2 -6 16710.4 1027.03 7
2 0 6 18980.9 1217.02 1
2 0 -6 18557.6 1265.99 3
0 -2 -6 17883.9 1099.92 3
-2 0 -7 39200.2 1687.88 3
0 2 -7 40817.3 1715.54 7
2 0 7 41987.1 1980.04 1
-2 0 7 43846.6 2087.68 1
0 2 7 45934 2139.18 1
0 -2 -7 40231.2 1789.95 3
0 -2 7 40722.6 1850.49 1
2 0 -7 41276.9 2039.92 3
0 2 7 37067.5 2266.16 8
2 0 8 5224.02 790.411 1
2 0 -8 6040.38 961.035 3
0 -2 8 4677.18 728.209 1
0 2 8 5127.82 1053.9 8
-2 0 8 4847.89 811.848 1
0 -2 -8 3828.09 676.132 3
0 2 8 5137.54 858.577 1
-2 0 9 298.159 414.104 1
0 2 -9 607.621 382.706 3
0 2 9 -114.11 315.488 1
2 0 9 412.361 260.347 1
2 0 -9 394.362 380.421 3
0 -2 9 571.171 253.876 1
2 0 10 856.389 325.163 1
-2 0 10 1094.83 386.739 4
2 0 10 383.073 289.917 5
0 -2 10 528.854 335.466 5
2 0 -10 307.242 454.288 3
0 -2 10 861.737 387.156 4
-2 0 10 1184.74 528.223 1
0 2 10 1527.96 615.14 1
2 0 10 940.359 350.663 4
0 2 10 610.022 335.673 4
0 -2 11 2161.14 562.245 5
0 2 11 2738.29 785.261 1
2 0 11 2026.35 494.352 5
0 -2 11 3007.48 603.197 4
0 2 11 2942.67 566.479 4
-2 0 11 2854.97 579.145 4
-2 0 11 1944.23 589.324 1
2 0 11 2505.87 539.87 4
0 2 12 4079.77 672.237 4
0 -2 12 4379.13 740.419 5
0 -2 12 4158.07 678.505 4
2 0 12 3688.44 618.074 4
-2 0 12 3958.33 691.685 4
2 0 12 3185.18 643.267 5
2 0 13 1526.73 455.396 5
0 -2 13 1674.88 487.157 5
2 0 13 1922.18 522.964 4
-2 0 13 1776.69 480.041 4
0 -2 13 867.01 336.637 4
0 2 13 1464.27 448.906 4
0 2 14 2464.29 502.934 4
2 0 14 2652.55 515.723 4
-2 0 14 2015.16 482.79 4
2 0 14 2046.84 456.312 5
0 -2 14 1838.25 489.427 4
0 2 15 1648.02 399.654 4
2 0 15 1511 362.212 4
-2 0 15 1022.75 326.919 4
0 -2 15 1510.72 383.091 4
0 2 16 -102.816 139.285 4
0 -2 16 119 173.977 4
-2 0 16 220.049 186.741 4
1 2 0 -2.20333 102.619 7
-1 -2 0 79.2791 97.8837 9
1 -2 0 42.2416 105.432 3
-1 2 0 3.7137 55.532 1
-2 1 0 87.6428 85.5794 1
-1 2 0 -62.7135 101.768 7
-2 -1 0 78.8576 111.901 9
2 -1 0 23.4008 98.2211 3
1 -2 -1 10658.9 520.057 3
1 2 1 10824.7 425.412 2
1 2 1 9875.38 491.518 1
-2 1 1 10369.8 484.193 1
-1 2 1 10744.1 536.219 8
2 -1 1 11458.5 542.256 2
2 1 -1 10156.1 428.549 7
1 -2 1 10873.7 437.642 2
2 1 1 9846.86 438.855 8
-1 -2 1 10477.6 437.667 9
-1 2 1 10893.4 436.195 7
2 -1 -1 10982.1 546.037 3
-2 1 1 10795.6 449.059 8
-1 -2 -1 10098.1 498.108 9
2 -1 1 11339.7 502.011 3
1 2 1 10704 535.388 8
-2 -1 -1 10248 477.917 9
-1 2 -1 10535.4 546.48 7
2 1 1 11053.8 524.635 2
1 2 -1 10714.8 508.218 7
-2 1 -1 10891.7 397.994 9
-1 2 1 10026 460.819 1
-2 -1 1 10319.5 492.632 9
1 2 1 9739.55 497.343 7
-1 -2 -1 10274 337.645 3
2 1 2 36246.6 1068.67 8
-1 2 2 34841.6 1059.79 1
1 2 -2 36096.6 1010.94 7
-2 -1 2 34958.4 978.005 9
-2 1 2 35882.8 1092.1 1
1 2 2 35542.8 1079.21 1
1 -2 -2 36193.7 1046.89 3
-1 2 -2 36057.3 1143.59 7
2 -1 2 36069.1 825.592 1
-2 -1 -2 36044.1 958.525 9
1 -2 2 36276 699.813 1
1 2 2 35989.4 1144.93 8
-1 2 2 36836.9 752.903 7
2 -1 2 37856.1 1148.67 2
-2 1 2 36312.3 1073.82 8
-1 -2 -2 37815.3 737.432 3
-1 -2 2 36103.7 847.002 9
-1 -2 2 36058.2 968.986 1
2 1 -2 36953.8 824.24 7
-1 -2 -2 35498.1 1024.11 9
-1 2 2 35917.7 1117.36 8
-2 1 -2 37160.6 653.98 9
-2 -1 2 36571.2 1056.8 1
2 -1 -2 35674.1 1108.16 3
2 1 2 36560.9 1039.83 1
2 1 2 34996.8 1097.45 2
-1 2 -3 31540.1 1173.59 7
2 -1 -3 30179.2 1167.45 3
2 -1 3 31945.1 993.548 1
1 -2 3 29287.6 872.526 1
-1 -2 3 30591 1060.99 1
1 2 3 30761.9 1155.32 1
-1 2 3 28727.9 1173.66 8
2 1 3 31228.4 1146.04 1
-2 -1 3 32144.4 1161.66 1
-2 1 -3 27545.6 571.048 9
1 2 3 30248.8 1214.53 8
-2 -1 -3 30825.7 981.034 9
2 1 -3 30449.6 807.13 7
1 -2 -3 29245 1089.17 3
-1 -2 -3 30162.8 821.154 3
-2 1 3 30378.6 1159.51 1
1 2 -3 30050.9 1013.87 7
-2 1 3 29295.8 1189.22 8
-1 2 3 28274.5 1114.13 1
2 1 3 31459.8 1223.69 8
-1 -2 4 6433.21 570.442 1
-2 -1 4 6271.06 601.499 1
-2 1 4 5387.67 600.658 8
-1 2 4 5962.84 662.531 8
-2 1 4 6633.97 640.843 1
1 2 4 6107.33 607.742 1
1 2 4 6080.02 676.518 8
-1 2 4 6561.28 627.89 1
1 -2 4 5838.52 475.558 1
1 2 -4 6440.47 514.037 7
2 -1 -4 5874.41 606.591 3
-1 -2 -4 6173 448.89 3
-2 -1 -4 6407 507.083 9
1 -2 -4 6465.16 591.503 3
-2 1 -4 5081.03 268.763 9
2 1 4 6171.77 587.014 1
2 1 -4 6801.51 450.996 7
-1 2 -4 6765.2 622.104 7
2 -1 4 6328.35 527.138 1
2 1 4 6453.25 664.639 8
2 1 5 258.276 289.315 8
1 2 -5 63.8393 195.704 7
-2 -1 -5 362.079 172.749 3
1 -2 5 71.5573 169.724 1
-2 1 5 -38.8822 244.635 1
-2 1 5 91.965 321.839 8
2 -1 5 190.919 201.353 1
2 -1 -5 99.6826 235.028 3
2 1 -5 340.622 180.28 7
-1 2 5 358.518 287.401 8
1 2 5 -145.656 262.05 1
1 -2 -5 304.589 250.014 3
-1 -2 -5 233.834 149.501 9
-2 -1 -5 376.877 214.348 9
-1 -2 5 4.87966 185.385 1
2 1 5 145.961 196.529 1
-1 2 -5 -5.04671 200.351 7
-1 -2 -5 177.41 133.694 3
-2 -1 5 113.678 209.992 1
-1 2 5 45.382 215.939 1
-2 1 -5 22.9133 47.4076 9
1 2 5 -256.801 286.947 8
-1 2 6 3167.13 526.152 1
2 1 6 4108.97 606.102 1
-2 1 -6 3768.14 552.153 7
1 2 6 3144.57 529.379 1
-2 -1 -6 3279.95 425.339 3
-2 -1 6 3539.13 562.234 1
-1 2 6 3358.24 637.441 8
-2 -1 -6 3724.35 463.103 9
-1 -2 -6 2554.39 407.306 9
-1 2 -6 3694.02 538.47 7
2 -1 -6 3831.92 584.438 3
1 -2 6 2939.47 457.38 1
1 2 6 3105.44 613.395 8
-1 -2 6 4117.26 589.935 1
-2 1 6 1505.87 505.146 8
1 -2 -6 3743.3 556.374 3
-1 -2 -6 3585.21 467.688 3
-2 1 6 3664.6 583.379 1
2 -1 6 3763.01 541.041 1
2 1 6 2425.68 560.676 8
1 2 -6 3136.8 435.991 7
1 -2 -7 2206.18 471.48 3
1 -2 7 2383.71 471.293 1
-1 -2 7 2595.69 533.163 1
2 1 -7 2441.57 543.617 3
2 -1 7 2491.5 486.796 1
-1 2 7 2312.89 523.064 1
-2 1 -7 1596.42 411.59 7
-2 -1 -7 1976.3 346.868 3
1 2 7 1435.21 531.48 8
-1 -2 -7 2070.75 378.942 9
-1 2 -7 1701.3 388.551 7
-1 2 7 2256.16 641.246 8
-2 -1 7 1816.85 470.304 1
2 -1 -7 1795.03 467.98 3
-2 1 7 2032.33 490.369 1
2 1 7 1893.39 476.984 1
1 2 7 2554.06 540.536 1
-1 -2 -7 2096.2 374.856 3
-2 1 -8 323.17 169.202 3
1 -2 8 453.711 310.826 1
-2 1 8 196.124 299.424 1
1 2 8 295.616 253.086 1
-1 -2 8 -18.7551 215.539 1
1 -2 -8 816.943 304.164 3
1 2 -8 749.951 380.533 3
1 2 8 -172.821 332.952 8
2 -1 -8 610.649 359.339 3
2 -1 8 365.814 277.844 1
-2 1 -8 287.41 301.662 7
-1 2 8 136.185 244.559 1
-2 -1 8 -57.8166 287.294 1
2 1 8 290.49 242.396 1
2 1 -8 650.41 435.204 3
-2 1 9 -176.947 378.813 1
1 2 9 981.815 472.703 1
2 -1 -9 398.644 365.143 3
-2 -1 9 573.832 395.488 1
-1 2 9 202.083 387.603 1
-1 2 -9 199.19 201.646 3
1 -2 9 790.922 355.566 1
2 -1 9 227.488 250.653 1
-1 -2 9 372.96 317.077 1
2 1 9 289.27 247.065 1
1 2 -9 393.771 313.565 3
2 1 -9 471.203 450.304 3
-2 1 10 1034.3 558.061 1
1 -2 10 939.988 369.562 4
2 1 10 436.417 297.398 5
-1 -2 10 1028.06 450.263 1
-1 -2 10 833.614 280.032 4
-1 2 10 1061.02 336.727 4
1 2 -10 1157.05 455.547 3
2 -1 10 1080.48 352.522 4
-1 -2 10 849.121 366.489 5
2 -1 10 812.242 374.161 5
2 1 10 882.891 342.663 4
-2 -1 10 581.945 319.34 4
2 1 -10 568.889 342.814 3
1 2 10 773.443 472.798 1
-1 2 10 1097.59 531.641 1
-2 1 10 652.752 275.729 4
-2 -1 10 263.781 262.315 1
1 2 10 802.711 332.436 4
1 -2 10 619.01 252.022 5
2 1 10 187.931 258.156 1
1 2 11 -3.12272 351.372 1
-1 2 11 1517.59 525.395 1
2 1 11 475.603 314.573 5
-2 1 11 617.522 511.541 1
2 -1 11 742.029 310.478 5
-2 -1 11 971.058 443.436 1
2 1 11 418.831 222.835 4
-1 2 11 -230.521 273.112 4
2 -1 11 646.578 310.206 4
1 -2 11 708.255 346.449 5
1 -2 11 262.892 253.769 4
-1 -2 11 658.722 342.838 4
-1 -2 11 728.168 311.935 5
-2 -1 11 419.425 237.145 4
1 2 11 1077.37 395.612 4
-2 1 11 547.42 301.267 4
-1 -2 12 349.006 306.57 4
2 1 12 197.523 206.77 5
1 -2 12 -427.587 371.773 4
2 -1 12 -41.1177 269.993 4
2 -1 12 425.867 311.763 5
-2 1 12 -76.4722 287.255 4
-2 -1 12 162.823 283.601 4
-1 2 12 121.587 223.032 4
1 -2 12 15.2138 298.018 5
1 2 12 -295.464 272.092 4
-1 -2 12 -83.4901 254.303 5
2 1 12 171.433 291.369 4
-1 -2 13 -257.609 311.686 4
1 2 13 18.7326 203.105 4
2 1 13 443.521 275.747 5
-2 -1 13 -211.922 259.259 4
2 1 13 -328.181 258.338 4
-2 1 13 -420.723 334.685 4
2 -1 13 -62.3343 221.294 4
1 -2 13 -222.943 320.735 5
-1 2 13 -305.699 306.384 4
1 -2 13 -151.953 285.808 4
2 -1 13 295.551 253.948 5
2 1 14 21.5453 220.893 4
1 2 14 134.775 238.709 4
1 -2 14 -566.26 297.48 4
-2 -1 14 -107.93 203.406 4
-1 2 14 87.7985 226.772 4
-1 -2 14 -189.892 231.8 4
2 -1 14 218.354 278.962 5
2 -1 14 -109.151 195.049 4
1 -2 14 -301.479 281.465 5
-2 1 14 -222.271 233.289 4
-2 1 15 -149.227 233.014 4
2 1 15 572.663 257.227 4
-2 -1 15 86.9582 200.087 4
2 -1 15 586.274 289.979 4
-1 -2 15 89.9172 225.941 4
1 2 15 -85.6113 175.994 4
1 -2 15 37.8504 181.004 4
-1 2 15 83.3517 207.336 4
-1 2 16 26.057 128.348 4
-2 -1 16 -64.3478 153.066 4
-2 1 16 44.7024 135.892 4
-1 -2 16 -59.5855 196.782 4
-2 -2 0 632719 3982.62 9
2 2 0 635391 4145.37 7
-2 2 0 553370 2775.01 1
-2 2 0 582014 3881.43 7
2 -2 0 573073 4040.7 3
2 2 1 100406 1634.54 8
-2 -2 -1 99458.8 1674.27 9
2 2 1 102821 1590.11 2
2 2 -1 102501 1653.44 7
2 -2 1 98049.9 1718.31 3
-2 2 1 96649 1560.85 1
-2 -2 1 103693 1645.81 9
-2 2 1 95381.1 1316.28 7
2 -2 -1 97677 1758.25 3
-2 2 1 95465.8 1575.02 8
2 -2 1 94331.9 1544.66 2
2 -2 -2 376664 3775.32 3
2 2 2 377270 3734.03 2
-2 2 2 369574 3644.98 1
-2 -2 2 453617 3825.56 1
2 2 2 455655 4157.93 8
2 2 -2 420338 3436.63 7
-2 -2 -2 430204 3847.16 9
-2 -2 2 459141 3685 9
2 2 2 409097 3891.31 1
-2 -2 3 15150.5 888.522 1
2 2 -3 8378.63 604.529 7
-2 -2 3 13976.8 795.942 9
2 2 3 12640.8 893.68 1
-2 -2 -3 9198.29 394.176 3
2 2 3 14378 956.713 8
-2 -2 -3 5842.76 659.923 9
-2 -2 -4 38703.7 951.945 3
-2 -2 -4 41888.5 1400.08 9
2 2 4 40903.4 1653.81 8
2 -2 -4 46712.9 1666.06 3
2 2 -4 43828.4 1295.41 7
2 2 4 42750.2 1592.53 1
-2 2 4 46166.5 1660.61 1
2 -2 4 43393.5 1304.78 1
-2 -2 4 44298.1 1553.5 1
-2 2 4 44718.6 1754.87 8
-2 -2 -5 27026.9 1230.87 9
2 2 -5 27539.1 1122.94 7
-2 2 5 26827.2 1387.3 1
2 -2 5 27941.6 1203.37 1
2 2 5 28511.1 1445.34 1
-2 2 5 27585.8 1536.07 8
2 -2 -5 26133.6 1397.59 3
-2 -2 -5 24810.8 933.128 3
-2 -2 5 27674.2 1366.2 1
-2 2 -5 28398.9 1456.76 7
2 2 5 25424.4 1510.74 8
-2 -2 6 86562.7 2653.96 1
2 2 6 86891.4 2728.59 1
2 -2 6 81931.5 2328 1
2 2 -6 81185.5 2050.16 7
-2 2 6 83358.8 2697.33 1
-2 -2 -6 83985.1 2323.8 9
-2 -2 -6 73859.3 1848.2 3
-2 2 -6 85351.4 2687.63 7
2 2 6 81601.9 2928.69 8
2 -2 -6 84010.1 2639.57 3
-2 2 6 81883.1 2878.02 8
-2 2 7 18125.8 1406.05 1
2 -2 7 17050.6 1186.42 1
-2 2 7 14462 1465.99 8
2 2 7 17601.2 1367.53 1
-2 -2 7 18519.2 1354.24 1
2 2 7 16147.1 1500.44 8
-2 2 -7 15762.6 1235.05 7
2 -2 -7 16938 1318.72 3
-2 -2 -7 15731.6 1085.62 9
2 -2 -8 4516.66 772.022 3
-2 2 -8 4675.63 689.552 7
2 2 8 4373.76 770.707 1
-2 -2 8 4851.03 757.832 1
2 -2 8 3948.43 630.104 1
-2 2 8 5634.94 895.314 1
2 2 -8 4914.06 802.485 3
-2 -2 9 2160.95 492.912 4
2 2 -9 2172.37 655.967 3
2 -2 -9 1045.54 438.822 3
-2 -2 9 2535.4 681.478 1
2 2 9 2312.47 632.11 1
-2 2 9 2088.33 594.535 1
2 -2 10 403.229 316.761 5
2 2 10 28.4627 218.595 5
2 2 -10 242.272 283.43 3
2 -2 10 387.093 335.124 4
-2 2 10 451.174 288.772 4
2 2 10 -164.505 255.649 4
-2 -2 10 -118.515 391.947 1
-2 2 10 296.001 351.388 1
2 2 10 -45.7452 285.897 1
-2 -2 10 73.1927 188.469 4
-2 -2 11 64.4544 267.307 4
2 -2 11 165.939 218.584 4
2 2 11 -286.366 305.946 4
2 2 11 375.341 320.405 5
-2 2 11 194.654 254.718 4
2 -2 11 7.56486 263.213 5
-2 2 11 -592.123 440.375 1
2 -2 12 126.84 269.093 4
-2 2 12 510.552 369.983 4
2 2 12 509.147 301.963 4
2 -2 12 398.572 290.538 5
-2 -2 12 431.02 248.785 4
2 2 12 545.36 320.205 5
2 2 13 2511.36 496.311 4
-2 -2 13 3805.53 657.109 4
2 -2 13 2145.61 503.375 4
-2 2 13 2593.61 583.03 4
2 -2 13 2674.35 581.225 5
2 2 14 850.923 340.901 4
-2 -2 14 587.856 295.221 4
2 -2 14 505.637 284.999 4
2 -2 14 723.924 328.165 5
-2 2 14 180.107 224.075 4
2 2 15 -3.33045 166.299 4
-2 2 15 -6.21397 185.786 4
2 -2 15 -127.526 176.157 4
-2 -2 15 -257.735 222.132 4
-2 -2 16 -58.4194 140.388 4
-2 2 16 -12.7333 153.633 4
0 -3 0 86.9996 121.372 3
0 3 0 60.8838 123.49 7
-3 0 0 -26.3231 123.352 9
3 0 0 40.4888 120.856 3
3 0 1 197191 2600.77 2
-3 0 1 193713 2457.98 9
0 -3 -1 199124 2294.99 3
-3 0 -1 201218 2242.07 9
0 3 1 190590 2289.88 1
-3 0 1 197078 2382.14 1
0 -3 1 198003 2005.67 9
3 0 1 197767 1966.96 3
3 0 -1 193654 2460.69 3
0 3 -1 201034 2586.78 7
0 3 1 203772 2457.91 7
0 3 -2 304517 3425.3 7
3 0 2 310578 3135.88 8
-3 0 2 309048 3081.75 8
0 -3 2 310773 2241.88 9
0 -3 2 306025 2437.97 1
3 0 2 310862 3547.71 2
-3 0 2 304247 3362.09 1
0 3 2 309200 3043.79 7
3 0 -2 307611 3501.33 3
-3 0 -2 321431 2866.07 9
0 -3 -2 303398 2933.89 3
0 3 2 309893 3574.41 8
0 3 2 303990 3307.27 1
3 0 3 37942.5 1377.1 8
0 -3 -3 38113.7 1168.61 3
-3 0 3 37165.3 1361.83 8
0 -3 3 34520.6 673.961 9
0 -3 3 37482.6 1047.24 1
0 3 3 38200.8 1337.4 1
-3 0 -3 38175.3 1024.3 9
3 0 3 36637.9 1386.18 2
0 3 -3 38452.5 1306.7 7
0 3 3 39546.3 1479.54 8
-3 0 3 38065.9 1367.32 1
3 0 -3 38267.9 1397.66 3
3 0 -4 11380.9 856.581 3
0 -3 4 11700.3 695.042 1
0 3 4 11032.4 833.185 1
-3 0 4 11339.5 858.462 8
-3 0 4 12599.1 886.506 1
-3 0 -4 11869.3 610.875 9
3 0 4 11956.9 908.899 8
0 -3 -4 11776 731.201 3
0 3 -4 11598.8 795.072 7
0 3 4 11130.9 894.896 8
3 0 4 13189.8 817.652 1
-3 0 -5 61818 1453.61 9
0 3 -5 63170.4 1965.82 7
0 3 5 63211.6 2130.37 1
3 0 -5 68516.4 2256.08 3
-3 0 5 67995.7 2256.17 1
0 3 5 62098.4 2321.34 8
0 -3 -5 64393.8 1878.63 3
3 0 5 68251.8 2089.97 1
0 -3 5 62873.9 1818.85 1
3 0 6 17373.1 1164.67 1
3 0 -6 17113.7 1257.33 3
0 3 6 15341.6 1311.63 8
-3 0 6 17281 1244.65 1
0 -3 6 15840.7 1030.27 1
0 3 -6 15438.2 1053.41 7
0 -3 -6 15290.5 1008.2 3
0 3 6 17329 1239.32 1
0 3 7 -135.381 299.098 1
0 3 -7 -53.6585 161.98 7
3 0 -7 -51.2341 236.581 3
0 -3 -7 152.123 172.144 3
0 3 7 138.873 305.072 8
3 0 7 -51.2888 224.324 1
-3 0 7 107.854 256.859 1
0 -3 7 28.2944 165.445 1
0 -3 -7 -38.2018 204.355 9
3 0 -8 15709.4 1426.47 3
0 -3 -8 16022.6 1246.89 9
0 3 8 16501.4 1472.54 1
3 0 8 16400.1 1339.18 1
0 -3 8 15072.1 1204.49 1
-3 0 8 17403.2 1493.02 1
0 3 8 12172.3 1524.31 8
-3 0 -8 16283.1 1388.8 7
3 0 -9 13273.4 1419.06 3
0 -3 9 13426.9 1089.31 4
-3 0 9 13817.3 1476.48 1
0 3 9 15338.2 1564.2 1
-3 0 9 14757 1134.34 4
3 0 9 13814.2 1310.74 1
0 3 10 2684.2 746.145 1
-3 0 10 2274.83 669.044 1
-3 0 10 2400.14 498.891 4
0 3 -10 1148.49 485.755 3
0 -3 10 2317.84 566.279 5
0 3 10 2078.41 485.683 4
3 0 10 2466.65 507.632 4
3 0 10 2201.11 507.115 5
3 0 -10 2796.07 799.021 3
0 -3 10 2688.7 532.781 4
0 3 11 -77.8729 474.497 1
3 0 11 -153.805 284.879 5
0 -3 11 -1.69338 230.847 4
3 0 11 -300.622 222.818 4
-3 0 11 15.6173 422.756 1
-3 0 11 -86.7625 271.747 4
0 3 11 14.9257 191.268 4
0 -3 11 -264.812 261.114 5
3 0 12 744.212 379.967 5
0 3 12 467.198 290.15 4
0 -3 12 206.698 284.091 5
-3 0 12 466.425 321.947 4
3 0 12 608.325 303.506 4
0 -3 12 731.904 330.559 4
3 0 13 753.024 408.153 5
0 -3 13 407.499 321.238 5
0 -3 13 899.526 412.311 4
0 3 13 782.41 344.319 4
3 0 13 711.877 316.679 4
-3 0 13 304.009 245.795 4
0 -3 14 -388.428 241.331 4
3 0 14 -349.355 277.613 4
-3 0 14 69.9027 212.943 4
3 0 14 -252.974 239.993 5
0 3 14 -283.706 287.96 4
0 -3 14 -184.809 228.21 5
0 3 15 -123.363 196.557 4
-3 0 15 350.386 220.639 4
0 -3 15 -56.8466 240.142 4
3 0 15 -33.9165 164.982 4
-3 0 16 147.604 188.824 4
3 -1 0 94403.4 1677.36 3
1 3 0 99799.2 1792.08 7
-3 1 0 89977.8 1409.15 1
-1 3 0 93886.5 1697.44 7
-3 1 0 100865 1675.67 9
-1 3 0 95437 1247.36 1
1 -3 0 98233.7 1775.6 3
-3 -1 0 103616 1726.04 9
3 1 0 98577 1483.9 3
-1 -3 0 103765 1679.53 9
-1 -3 -1 57537.7 1354.29 9
-1 -3 -1 55995.7 1068.52 3
1 3 -1 56151.8 1368.55 7
-1 3 1 82280.5 1606.14 7
1 3 1 57026 1365.76 7
3 -1 1 67973.3 1564.33 2
3 1 1 58662.8 907.671 3
3 1 1 55005 1034.91 8
-3 -1 1 59380.6 1385.3 9
-3 -1 -1 54754.1 1271.32 9
-3 1 -1 71550.4 1372.82 9
3 -1 1 71353.8 1570.71 3
-1 -3 1 54848.2 1165.17 9
1 -3 1 79577.1 1290.79 2
3 1 1 56811.4 1411.56 2
-3 -1 2 13136.5 814.812 1
1 -3 2 1129.37 121.814 1
1 3 2 9450.76 720.275 7
-3 1 2 1461.76 252.777 8
3 -1 -2 1242.48 265.888 3
-3 1 -2 1101.27 187.214 9
-1 3 2 1176 209.149 7
-3 -1 -2 2518.88 341.157 9
1 -3 -2 1539.09 277.887 3
-1 3 2 987.511 272.571 8
3 -1 2 1021.53 284.57 2
1 -3 2 1275.7 135.639 9
3 1 2 9204.62 626.28 8
-3 1 2 1370.72 272.152 1
-1 3 -2 1291.41 287.914 7
3 1 2 6572.62 599.447 2
-1 3 2 1323.05 260.74 1
1 3 2 9474.24 821.204 1
-1 -3 2 5577.78 447.374 9
1 3 3 32527 1333.64 8
-3 1 3 33642.4 1294.86 1
1 -3 -3 30812.6 1156.52 3
-3 -1 3 32075.6 1239.86 1
-1 -3 3 31815.2 1083.28 1
1 3 -3 33609.2 1225.74 7
-3 -1 -3 32253.2 1073.65 9
3 1 3 32420.5 1298.77 2
-1 -3 3 30297.4 871.409 9
3 -1 -3 31646.4 1299.36 3
-1 3 3 31229.3 1235.23 1
-3 1 -3 32225.5 797.703 9
-1 3 -3 31378.4 1259.55 7
3 -1 3 33918.8 1339.96 2
3 1 3 31660.2 1253.97 8
1 -3 3 30706.4 829.676 1
-3 1 3 31853.1 1257.78 8
-1 3 3 33634.5 1338.8 8
3 1 -3 31915.2 825.712 7
-1 -3 -3 32033.1 905.14 3
1 3 3 31127.9 1228.21 1
-1 3 4 3402.03 551.465 8
-3 -1 4 3160.19 493.548 1
3 -1 4 3698.34 428.32 1
1 3 -4 3672.95 475.102 7
3 1 4 3544.8 488.603 1
-1 -3 -4 4078.41 410.41 3
-3 -1 -4 2994.22 361.446 9
-1 -3 4 3661.39 449.948 1
1 3 4 3036.54 548.162 8
-1 3 4 3551.34 500.863 1
3 1 4 3694.62 554.006 8
1 3 4 3881.68 521.564 1
-3 1 4 3156.3 476.801 1
-1 3 -4 3820.89 516.141 7
3 1 -4 2968.03 270.458 7
-3 1 4 3367.09 494.153 8
1 -3 4 3185.25 350.438 1
3 -1 -4 3817.47 546.039 3
-3 1 -4 2885.17 246.658 9
1 -3 -4 3516.48 476.688 3
-3 -1 5 4925.31 650.028 1
-1 -3 5 4782.97 568.829 1
1 -3 -5 4797.43 612.653 3
-3 1 5 4315.33 594.386 1
1 -3 5 4149.19 463.188 1
3 1 -5 3197.99 279.385 7
-1 3 5 4870.61 641.17 1
-1 -3 -5 4268.17 555.237 9
3 1 5 4775.72 603.153 1
-3 -1 -5 4597.24 485.973 9
3 1 5 3938.37 665.394 8
3 -1 -5 5626.2 678.006 3
-3 -1 -5 3925.52 378.092 3
1 3 -5 4717.12 552.75 7
-1 3 5 4509.05 697.152 8
3 1 -5 5157.25 641.679 3
1 3 5 4563.58 626 1
1 3 5 4385.76 676.11 8
-1 3 -5 3627.82 530.47 7
3 -1 5 4852 555.046 1
-1 -3 -5 4779.31 487.693 3
-3 1 5 4151.34 724.366 8
-3 1 6 3282.53 680.132 1
-1 -3 -6 1639.66 314.445 3
-1 3 6 2909.08 629.998 1
-1 3 6 3443.27 781.183 8
3 1 -6 1443.24 369.445 3
1 -3 6 1166.55 274.014 1
1 3 -6 1523.52 358.367 7
3 -1 6 1723.79 381.738 1
3 -1 -6 2118.63 598.984 3
-3 -1 6 939.376 312.868 1
1 -3 -6 2544.48 561.18 3
-3 -1 -6 1426.45 280.706 9
3 1 6 1428.39 415.752 1
1 3 6 1619.93 510.475 8
3 1 6 1397.69 441.035 8
-1 -3 6 1813.26 378.113 1
-1 -3 -6 1554.86 372.126 9
-3 -1 -6 1344.83 265.374 3
1 3 6 2015.86 474.118 1
-1 3 -6 2133.07 466.237 7
1 3 7 911.783 606.719 8
1 3 7 575.788 440.802 1
-1 3 7 199.218 372.523 8
3 -1 -7 -40.6214 287.842 3
-1 3 7 -247.454 335.021 1
3 1 7 527.278 354.839 1
-3 1 -7 55.1139 229.818 7
3 1 -7 147.929 463.117 3
-1 -3 7 502.003 291.451 1
-1 3 -7 451.34 267.993 7
-1 -3 -7 178.829 241.465 9
-3 1 7 149.549 252.988 1
-3 -1 7 386.17 368.577 1
3 -1 7 -105.273 178.753 1
1 -3 7 -179.288 247.251 1
1 -3 -7 25.2109 195.995 3
1 3 -7 348.412 243.831 7
-1 3 8 386.057 389.339 8
3 -1 8 -15.0405 268.306 1
1 -3 -8 488.618 326.264 3
-1 3 8 214.229 272.779 1
1 -3 8 185.917 177.71 1
-3 1 8 384.723 312.588 1
3 1 -8 -66.1404 296.567 3
1 3 8 389.832 394.993 8
-3 -1 8 -19.0098 330.4 1
3 -1 -8 442.729 497.532 3
-1 -3 8 50.6023 192.436 1
3 1 8 138.745 256.192 1
1 3 8 262.286 270.54 1
-3 1 -8 251.783 278.799 7
-1 3 -8 -89.5016 187.095 7
-3 -1 9 290.896 210.849 4
-3 1 9 805.032 475.187 1
-3 1 9 499.009 259.413 4
1 3 9 414.918 365.788 1
-1 -3 9 706.436 334.184 4
-3 -1 9 614.576 382.923 1
-1 -3 9 170.708 210.01 1
-1 3 9 -139.801 360.783 1
3 1 -9 475.62 427.389 3
3 1 9 331.061 226.505 1
1 3 -9 162.757 369.061 3
3 -1 -9 205.859 380.586 3
3 1 -10 -253.903 496.536 3
-3 -1 10 -70.7758 182.867 4
-1 -3 10 -85.347 218.174 5
1 -3 10 -123.607 224.552 4
-1 3 10 -155.808 424.893 1
1 3 10 253.173 394.981 1
3 1 10 28.3642 268.406 5
1 -3 10 -90.119 280.268 5
-1 3 10 477.004 297.171 4
3 -1 -10 151.915 269.815 3
3 -1 10 45.4204 180.463 4
-3 -1 10 -447.042 377.518 1
3 -1 10 390.191 307.4 5
1 3 10 -62.6169 195.806 4
-3 1 10 -550.216 456.676 1
3 1 10 -344.721 198.319 4
-3 1 10 -28.8403 215.482 4
-1 -3 10 -230.045 287.411 4
1 3 -10 -179.123 498.75 3
3 1 11 -62.9317 255.788 4
3 1 11 77.0767 215.907 5
-3 1 11 -144.683 264.973 4
1 -3 11 -246.808 366.939 5
-1 -3 11 302.021 314.227 4
-3 -1 11 -396.146 469.882 1
-1 -3 11 79.081 209.55 5
3 -1 11 -246.421 306.246 5
1 -3 11 -297.26 213.698 4
-3 1 11 -597.325 316.555 1
-3 -1 11 -24.105 240.804 4
1 3 11 657.809 427.432 1
-1 3 11 234.559 360.673 1
1 3 11 192.031 192.943 4
-1 3 11 -39.7838 235.685 4
3 -1 11 -95.6178 297.356 4
1 -3 12 -30.2117 246.816 5
1 -3 12 299.126 281.543 4
-1 -3 12 -41.1502 253.456 5
3 1 12 28.2527 205.109 4
-1 3 12 261.389 219.086 4
-3 -1 12 -62.5964 246.958 4
3 -1 12 182.785 217.053 4
-3 1 12 -209.129 264.272 4
3 1 12 -693.756 345.067 5
1 3 12 -28.9686 235.621 4
3 -1 12 47.1902 308.893 5
-1 -3 12 -187.096 319.377 4
3 -1 13 333.468 264.676 4
3 1 13 -73.3426 270.156 5
-1 3 13 491.89 301.663 4
3 1 13 625.724 288.073 4
3 -1 13 334.49 257.189 5
-1 -3 13 263.271 251.212 5
-3 1 13 201.834 207.554 4
1 -3 13 271.867 296.676 4
1 -3 13 384.224 214.803 5
1 3 13 448.117 272.003 4
-3 -1 13 833.723 374.622 4
-1 -3 13 772.911 322.182 4
-1 -3 14 -25.7008 216.601 4
-3 -1 14 213.508 191.27 4
1 -3 14 -371.506 198.778 5
1 -3 14 -415.136 281.029 4
3 1 14 31.0367 198.595 4
-3 1 14 -31.888 208.617 4
3 -1 14 133.819 234.631 4
3 1 14 163.874 233.649 5
1 3 14 512.494 297.3 4
3 -1 14 102.087 203.055 5
-1 3 14 -64.4947 280.028 4
-1 3 15 665.433 253.647 4
-1 -3 15 170.04 184.804 4
-3 1 15 334.979 230.941 4
1 3 15 353.285 231.612 4
3 -1 15 -213.595 157.894 4
1 -3 15 -331.894 218.657 4
3 -1 15 -35.3281 204.81 5
-1 3 16 -135.668 141.99 4
-3 -1 16 13.5683 138.368 4
-1 -3 16 -164.909 177.826 4
-3 1 16 -20.5065 153.719 4
-2 -3 0 8.06924 152.661 9
3 2 0 -80.7683 170.917 7
2 -3 0 57.1039 159.109 3
3 -2 0 -45.1473 171.416 3
2 3 0 2.56817 157.452 7
-2 3 0 74.7865 83.4889 1
-2 3 0 -5.66955 144.616 7
-3 -2 0 -96.0898 164.367 9
-3 2 0 -16.7511 101.777 1
-3 -2 1 22607.9 890.698 9
-3 2 1 23443.7 764.885 7
-2 -3 1 23802 860.85 9
-3 2 1 22568.9 786.228 8
3 -2 1 24468.3 934.207 2
-3 2 1 24131.3 850.246 1
-2 3 1 22597.5 904.521 8
-2 -3 -1 23571.1 929.898 9
2 3 1 24060.1 940.836 8
2 -3 1 24176.1 993.198 3
2 -3 -1 22695.3 936.627 3
3 2 1 22310.1 530.608 3
2 -3 1 22347.7 759.617 2
3 2 -1 22158.8 845.558 7
-3 -2 -1 23720.6 893.207 9
2 3 1 22781.3 741.157 2
-2 3 -1 23615.2 966.866 7
3 2 1 22420.7 787.82 8
2 3 -1 22730.7 914.808 7
3 2 1 24947.6 926.661 2
3 -2 -1 23075.3 951.243 3
-2 3 1 21565.2 783.88 1
2 3 1 22391.2 933.299 7
-2 3 1 23565.3 826.62 7
3 -2 1 23542.4 921.823 3
2 -3 -2 62004.8 1649.88 3
3 -2 -2 63025.7 1699.11 3
3 2 2 62867.1 1537.81 8
-2 -3 2 62212.1 1406.85 9
-3 2 2 63305.1 988.374 7
2 3 -2 61623.1 1529.73 7
-3 2 2 61932.9 1528.97 8
2 -3 2 62258 1513.92 2
-2 -3 2 63663.6 1522.62 1
2 3 2 61121.5 1434.11 2
-3 -2 2 62636.9 1573.24 9
-2 3 2 60817.9 1628.14 8
2 3 2 62870.7 1645.99 8
-3 -2 2 62785 1576.17 1
3 2 -2 60808.2 1371.6 7
-2 3 2 66251.6 1272.56 7
-3 2 2 63178.3 1595.72 1
-2 -3 -2 62835.8 1586.88 9
3 -2 2 63527.8 1663.85 2
-2 3 -2 63933.1 1770.5 7
3 2 2 63113.5 1602.61 2
-2 3 2 61090.4 1538.59 1
-3 -2 -2 62286.8 1541.36 9
3 -2 -3 40477.8 1486.97 3
2 -3 -3 39636.3 1441.52 3
-3 -2 -3 40472.9 1328.7 9
2 3 3 39582 1505.43 8
2 3 3 39784.2 1407.08 1
3 2 -3 39886.3 1154.15 7
3 2 3 38047.8 1414.22 8
3 2 3 39771.2 1448.72 2
-3 2 3 38681.8 1425.83 8
2 -3 3 40915.1 882.01 1
-3 2 3 38080.6 1427.33 1
-2 3 3 38316.5 1394.97 1
-2 3 -3 41731.4 1547.9 7
-2 -3 3 41128.8 1337.94 1
2 3 -3 40748.8 1298.92 7
-2 -3 3 37814.4 1153.15 9
-3 -2 3 39451.2 1299.6 9
-2 3 3 37749.5 857.261 7
-2 -3 -3 40709.6 1390.36 9
-2 -3 -3 34510.1 674.235 3
3 -2 3 42369.2 1523.23 2
-2 3 3 40522.7 1497.08 8
-3 -2 3 40273.8 1421.52 1
2 3 4 40557.8 1604.45 1
-3 -2 -4 41601 1444.02 9
-2 3 4 38791.5 1558.4 1
3 2 4 41556.9 1662.67 8
-3 2 4 40699.9 1642.01 8
2 -3 -4 41821.5 1590.79 3
-2 3 -4 40853.2 1667.84 7
2 -3 4 41804.3 1179.24 1
3 -2 4 40646 1238.4 1
-2 -3 4 42916 1544.31 1
-2 -3 -4 37898.9 910.967 3
-2 3 4 40766.1 1669.91 8
-2 -3 -4 40912.5 1486.31 9
-3 -2 4 44014.8 1642.5 1
2 3 -4 40875.5 1408.69 7
2 3 4 40305.3 1673.58 8
3 2 -4 41607.8 1245.45 7
3 2 4 40808.1 1550.25 1
3 -2 -4 42081.6 1661.67 3
-3 2 4 40809 1608.36 1
-2 3 5 15353.8 1162.14 8
-2 3 -5 16773.5 1134.87 7
-3 -2 5 16179.6 1127.6 1
3 -2 5 17719.6 964.006 1
-3 2 5 16243.5 1188.04 8
2 3 -5 17155.4 997.327 7
3 2 5 16889.9 1112.29 1
-2 -3 5 18376.2 1136.81 1
-2 -3 -5 15409.8 709.248 3
-2 -3 -5 16473.2 1041.54 9
3 2 -5 16324.7 823.833 7
2 3 5 15714.6 1194.74 8
3 -2 -5 17154.3 1175.14 3
2 3 5 17839.4 1174.26 1
2 -3 5 16368.9 877.673 1
-3 -2 -5 16217.5 974.171 9
-2 3 5 16362.5 1108.69 1
-3 2 5 15577.1 1093.37 1
3 2 5 15957 1219.98 8
2 -3 -5 16577.9 1096.55 3
-3 -2 -5 12704.7 539.021 3
2 -3 6 13080.1 892.131 1
-3 2 6 10908 1151.31 8
3 -2 6 13019.2 928.796 1
-2 -3 6 12765.5 1031.97 1
3 2 6 12328.2 1188.52 8
-2 3 6 11395 1141.25 8
-3 2 6 13923.8 1144.01 1
-2 -3 -6 12286.9 962.89 9
2 -3 -6 12792.6 1046.52 3
-2 3 -6 12993.1 1080.82 7
-3 2 -6 13549.6 1145.26 7
-3 -2 -6 12924.3 928.168 9
2 3 6 14078.1 1137.17 1
2 3 6 13087.4 1218.87 8
3 2 6 12563.2 1048.17 1
-2 3 6 12888.5 1088.52 1
3 -2 -6 12614.2 1081.27 3
2 3 -6 12175.9 879.542 7
-3 -2 6 12829.5 1093.89 1
-3 2 7 347.348 362.224 1
-3 -2 7 349.659 340.03 1
3 -2 7 431.177 182.786 1
3 2 7 230.932 291.015 8
-2 -3 7 333.549 267.871 1
3 2 -7 69.2652 298.949 3
3 2 7 850.555 347.186 1
2 3 7 -15.1923 260.86 1
-2 3 7 261.113 297.528 8
2 3 7 373.104 352.445 8
2 -3 7 645.886 290.62 1
-3 2 7 -136.596 318.482 8
-3 2 -7 159.156 253.674 7
2 -3 -7 -101.39 253.243 3
-2 3 7 82.7092 244.021 1
3 -2 -7 -175.443 348.807 3
-2 3 -7 310.692 240.084 7
-2 -3 -7 130.527 189.339 9
-3 -2 8 2405.11 617.772 1
-2 -3 8 1839.16 530.751 1
-3 2 8 2155.68 597.996 1
3 2 8 1705.89 486.66 1
2 3 8 1212.25 496.532 8
-2 3 -8 2643.83 576.489 7
-2 3 8 1866.73 551.71 1
3 -2 -8 1346.27 476.057 3
2 -3 -8 1412.19 409.354 3
3 2 -8 2329.58 635.929 3
-2 3 8 813.327 406.292 8
-3 2 -8 1689.9 533.674 7
2 3 8 1938.13 529.352 1
-3 2 9 4127.79 819.945 1
-2 3 9 5634.54 941.28 1
-3 2 9 4324.46 653.288 4
2 3 9 4650.84 890.163 1
3 2 -9 5150.9 906.993 3
3 2 9 4146.14 761.809 1
2 -3 9 4461.83 633.22 4
3 -2 9 3687.85 633.704 5
-2 3 9 4122.78 632.321 4
3 -2 -9 4079.8 805.207 3
-3 -2 9 4039.96 607.115 4
-2 -3 9 4253.37 783.695 1
-3 -2 9 5125.8 922.002 1
2 -3 9 3874.35 655.611 5
2 3 -9 4499.66 841.828 3
-2 -3 9 4741.13 654.489 4
-2 3 10 3318.22 801.186 1
-3 2 10 3186.89 826.672 1
3 2 10 2913.69 510.911 4
-3 -2 10 3455.43 609.739 4
-2 3 10 3352.34 613.112 4
2 -3 10 4100.29 711.434 5
2 3 10 3238.04 780.581 1
-2 -3 10 2562.36 564.222 5
3 -2 10 3973.15 705.176 5
2 3 10 2744.82 556.433 5
-3 2 10 3060.7 584.23 4
-3 -2 10 3811.29 838.156 1
3 2 -10 2734.45 738.047 3
3 -2 10 4019.82 622.004 4
2 3 -10 3163.75 732.671 3
2 -3 10 3593.53 628.801 4
3 2 10 3511.79 637.673 5
-2 -3 10 3541.98 588.251 4
2 3 10 2496.87 468.425 4
2 -3 11 1789.12 483.877 4
3 -2 11 1737.17 444.704 4
2 -3 11 1509.18 437.631 5
-3 2 11 1870.47 492.023 4
3 -2 11 2034.3 573.036 5
-2 -3 11 1504.08 446.49 5
2 3 11 1501.72 411.264 4
-2 -3 11 1631.08 443.047 4
3 2 11 1932.68 444.852 4
-2 3 11 1751 693.814 1
-2 3 11 1927.56 486.23 4
-3 2 11 1530.43 660.713 1
-3 -2 11 2187.9 522.522 4
3 2 11 1697.37 493.259 5
-2 3 12 398.894 246.969 4
3 2 12 457.533 304.867 5
2 3 12 273.642 228.45 4
-2 -3 12 117.701 233.204 4
3 -2 12 353.62 301.406 5
3 2 12 475.343 302.065 4
-2 -3 12 9.08635 215.15 5
-3 -2 12 577.702 306.453 4
2 -3 12 369.664 267.738 4
3 -2 12 431.022 286.161 4
-3 2 12 745.286 388.303 4
2 -3 12 497.896 301.567 5
-2 3 13 -439.234 311.138 4
2 3 13 -73.3452 222.151 4
3 2 13 -110.646 268.908 5
2 -3 13 -93.2453 259.073 4
-3 2 13 -120.207 275.844 4
-3 -2 13 -374.428 322.457 4
-2 -3 13 -350.928 332.851 4
2 -3 13 -301.487 277.263 5
3 -2 13 -212.597 313.726 5
3 -2 13 231.089 212.741 4
3 2 13 11.107 215.561 4
2 -3 14 206.674 188.4 4
-2 -3 14 -156.783 253.688 4
-2 3 14 -183.475 294.181 4
2 -3 14 -10.5649 227.916 5
2 3 14 -100.788 194.371 4
3 -2 14 241.143 251.715 5
-3 -2 14 246.132 260.175 4
3 -2 14 2.82124 196.532 4
-3 2 14 -164.853 296.737 4
-2 -3 15 -117.366 227.246 4
-2 3 15 -221.962 213.111 4
-3 2 15 281.71 212.098 4
3 -2 15 -58.1546 226.801 5
-3 -2 15 138.275 184.464 4
2 -3 15 -7.17217 188.117 4
3 -2 15 248.844 206.148 4
2 -3 15 285.633 234.595 5
-2 -3 16 7.58231 139.489 4
-2 3 16 143.13 153.846 4
-3 2 16 295.325 195.935 4
-3 -2 16 219.178 196.183 4
3 -3 0 161141 2621.92 3
-3 -3 0 174998 2542.46 9
-3 3 0 158279 1844.39 1
-3 3 0 164169 2539.33 7
3 3 0 171568 2647.88 7
-3 3 1 17083.5 898.298 8
3 -3 1 17482 922.807 3
-3 3 1 15986.3 729.454 7
-3 3 -1 12969.6 378.795 1
-3 3 1 18542.9 848.652 1
3 3 1 13110.7 719.294 8
3 3 -1 13198.6 736.733 7
-3 -3 1 12138.8 706.272 9
3 -3 1 14908.9 766.673 2
-3 -3 -1 12436.1 722.202 9
3 -3 -1 21801.4 1038.49 3
-3 3 -1 20233.6 1058.62 7
3 3 1 12610.7 675.229 2
-3 -3 -2 10830.4 792.448 9
-3 -3 2 15526.8 913.69 1
3 3 -2 17447.9 879.386 7
3 3 2 12359.5 916.966 8
3 3 2 12072.7 786.29 2
-3 -3 2 16234.9 904.569 9
-3 3 3 -5.42836 62.0865 7
-3 -3 3 1491.59 380.28 1
-3 3 -3 -5.25177 245.424 7
3 -3 3 37.7674 200.825 2
-3 3 3 129.232 237.701 8
-3 -3 -3 757.692 311.914 9
3 -3 -3 140.088 243.821 3
3 3 3 527.772 286.54 2
-3 -3 3 839.727 354.087 9
3 3 3 276.656 338.505 8
-3 3 3 52.3522 203.885 1
3 3 -3 1134.2 343.331 7
-3 -3 4 89887.5 2370.66 1
-3 -3 -4 88986.5 2297.95 9
3 -3 -4 86797.5 2491.25 3
3 3 4 87035.4 2527.47 8
-3 3 4 87507.8 2392.32 1
-3 3 4 86691.1 2452.24 8
3 3 -4 84278.2 2029.4 7
-3 3 -4 88539.2 2621.49 7
3 3 4 83847.8 2303.02 1
-3 3 5 40593.4 1878.31 8
-3 3 -5 45087.2 1987.98 7
-3 -3 -5 40492.7 1688.34 9
-3 -3 5 43635.4 1839.4 1
3 3 5 40723.5 1804.25 1
3 3 5 42020.2 1944.41 8
3 -3 5 39187.7 1328.88 1
-3 3 5 41760.6 1812.78 1
3 -3 -5 42101.7 1855.48 3
3 3 -5 41265.5 1496.63 7
3 -3 6 559.649 145 1
-3 3 -6 505.247 282.27 7
3 -3 -6 702.489 383.438 3
3 3 6 1522.08 576.816 8
-3 3 6 783.567 381.014 1
3 3 6 1472.09 491.212 1
-3 -3 -6 561.001 327.844 9
3 3 -6 814.24 246.752 7
-3 -3 6 1559.6 505.266 1
-3 3 6 2080.2 588.283 8
3 -3 -7 34070.2 1948.13 3
3 3 7 34013.7 1951.14 1
-3 -3 -7 34910.5 1739.21 9
3 3 7 32089.3 2154.37 8
-3 3 7 34756.6 1988.59 1
-3 3 -7 31177 1888.85 7
-3 -3 7 36817.8 2005.99 1
-3 3 7 32217.9 2110.45 8
-3 -3 8 17479.3 1514.38 1
-3 3 -8 15733.2 1430.52 7
-3 3 8 14915.5 1554.39 8
3 3 8 15586.3 1678 8
3 3 8 17740 1507.44 1
-3 3 8 18157 1593.13 1
3 -3 -8 16478.2 1473.49 3
3 3 -8 16363.1 1567.25 3
-3 -3 9 -125.919 272.432 1
-3 -3 9 246.473 235.844 4
-3 3 9 698.238 472.028 1
3 -3 9 548.1 256.693 4
3 3 -9 -50.9312 309.24 3
3 -3 9 446.257 262.709 5
3 -3 -9 160.217 324.493 3
-3 3 9 452.781 305.903 4
3 3 -10 775.755 502.322 3
-3 -3 10 -209.497 235.356 4
3 3 10 410.343 277.893 5
-3 3 10 69.0132 307.558 1
-3 -3 10 104.986 274.078 1
3 -3 10 -116.353 211.997 5
-3 3 10 156.043 224.104 4
3 -3 10 320.696 303.454 4
-3 -3 11 1251.51 404.515 4
-3 3 11 537.476 434.613 1
3 3 11 934.86 411.656 5
-3 3 11 1150.87 392.304 4
3 -3 11 657.227 323.05 4
3 -3 11 751.21 353.89 5
3 3 -11 529.342 364.997 3
3 3 11 892.85 345.224 4
-3 3 12 -172.289 309.157 4
3 -3 12 534.773 292.399 5
3 3 12 -668.538 272.756 4
3 -3 12 227.857 243.306 4
3 3 12 -36.894 243.906 5
-3 -3 12 314.377 264.1 4
-3 3 13 500.422 331.439 4
3 -3 13 198.623 241.267 4
3 -3 13 106.296 232.6 5
-3 -3 13 675.582 312.54 4
-3 -3 14 51.96 187.539 4
3 -3 14 617.343 324.891 4
-3 3 14 345.256 241.895 4
3 -3 14 -78.6552 237.49 5
-3 3 15 -118.311 199.238 4
3 -3 15 379.49 248.928 5
-3 -3 15 -44.1754 198.729 4
-3 3 16 330.516 176.649 4
-3 -3 16 -279.177 184.418 4
0 4 0 992436 6184.28 7
4 0 0 994346 5710.78 3
0 -4 0 985701 5789.69 9
-4 0 0 999999 6057.66 9
4 0 1 126601 1861.4 3
0 4 1 130871 2276.77 7
0 -4 -1 126360 2101.8 3
-4 0 1 129189 2271.96 9
-4 0 1 122341 2145.07 1
0 4 1 121479 2031.02 1
4 0 -1 125708 2236.55 3
0 -4 1 127875 1931.6 9
0 4 -1 130861 2360.89 7
4 0 1 127990 2345.79 2
-4 0 -1 129119 2120.36 9
4 0 2 60957.8 1728.38 2
0 4 2 61584.6 1780.25 8
0 4 2 60587.2 1600.96 7
4 0 2 60429.6 1240.48 3
0 -4 2 57886.3 1214.93 9
4 0 -2 62429.4 1737.84 3
0 -4 2 59557.9 1148.21 1
0 4 2 62570.4 1677.1 1
0 -4 -2 65756.5 1560.44 3
-4 0 -2 58352.4 1417.02 9
-4 0 2 61726.2 1669.59 1
0 4 -2 61805.6 1736.12 7
-4 0 3 6676.14 637.775 1
-4 0 -3 5780.21 473.054 9
0 4 3 6872.37 648.354 1
4 0 3 6312.09 657.973 2
0 4 -3 6352.52 631.134 7
0 -4 3 6596.92 475.061 1
0 -4 3 5632.78 348.276 9
0 -4 -3 6534.71 538.879 3
0 4 3 6106.5 661.238 8
4 0 -3 7293.2 703.837 3
0 4 -4 55017.6 1846.07 7
0 4 4 54463.4 1991 8
4 0 -4 55011.9 1947.96 3
4 0 4 53270 1952.44 2
-4 0 -4 55090.8 1438.8 9
0 4 4 52750.6 1835.26 1
0 -4 4 51158.9 1429.47 1
-4 0 4 55256.6 1917.25 1
0 -4 -4 53262.9 1590.88 3
4 0 -5 151234 3514.92 3
-4 0 -5 134280 2316.22 9
0 4 5 144337 3356.56 1
0 4 5 145456 3581.03 8
-4 0 5 151589 3506.28 1
0 4 -5 142998 3179.47 7
0 -4 5 137561 2637 1
0 -4 -5 141914 2863.83 3
-4 0 6 105689 3193.05 1
0 4 6 102145 3095.84 1
4 0 -6 99991.9 3132.98 3
0 4 -6 95592 2775.86 7
0 -4 -6 98280.4 2578.5 3
0 -4 6 91271.6 2397.43 1
0 4 6 98893.9 3289.69 8
0 4 7 1693.07 558.723 1
-4 0 7 1957.84 617.86 1
0 -4 -7 1413.39 425.697 9
0 4 -7 1929.75 472.777 7
0 -4 7 1486.03 345.478 1
0 4 7 3040.18 736.159 8
4 0 -7 2539.4 615.583 3
0 4 8 750.899 401.488 1
4 0 -8 891.778 442.892 3
-4 0 8 985.536 409.077 1
0 -4 -8 529.973 300.854 9
0 4 8 552.614 494.675 8
4 0 -9 174.67 481.163 3
4 0 9 176.257 216.522 5
0 4 9 -59.6859 397.641 1
-4 0 9 229.521 223.952 4
0 4 9 518.28 380.636 8
0 -4 9 345.246 226.821 5
-4 0 9 -205.686 324.39 1
0 -4 9 287.461 183.061 4
0 4 10 131.598 246.072 4
-4 0 10 -83.0603 254.165 4
4 0 10 277.258 181.514 4
4 0 10 -72.7044 246.078 5
0 4 -10 -322.644 392.755 3
4 0 -10 -405.498 354.94 3
0 -4 10 182.501 268.466 5
0 4 10 -313.263 407.763 1
0 -4 10 -89.1271 261.213 4
-4 0 10 409.045 427.549 1
-4 0 11 46.5474 194.131 4
-4 0 11 352.23 300.019 1
0 4 11 605.254 445.463 1
0 4 11 190.383 196.675 4
4 0 11 209.014 256.617 5
0 -4 11 388.424 289.172 4
4 0 11 -90.8678 187.268 4
0 -4 11 391.38 331.693 5
4 0 12 830.492 371.953 4
0 4 12 613.772 333.018 4
0 -4 12 1039.28 377.8 4
-4 0 12 948.339 379.189 4
0 -4 12 867.873 400.317 5
4 0 12 862.537 409.462 5
0 -4 13 1572.9 450.422 5
4 0 13 1875.88 505.458 5
0 -4 13 1815.39 494.167 4
4 0 13 1882.51 464.105 4
-4 0 13 1184.34 382.506 4
0 4 13 1959.83 509.662 4
0 4 14 596.785 293.778 4
-4 0 14 537.515 291.068 4
0 -4 14 506.304 292.403 5
4 0 14 -32.1134 206.327 5
0 -4 14 686.539 321.892 4
4 0 15 45.8399 212.385 5
-4 0 15 231.042 163.841 4
0 4 15 252.325 177.682 4
-4 0 16 101.93 154.067 4
1 4 0 -32.8123 207.076 7
-1 -4 0 -33.2857 185.672 9
-4 -1 0 30.9874 159.243 9
-4 1 0 -43.3525 129.22 1
4 1 0 13.8656 39.6083 8
-1 4 0 1.29933 177.38 7
1 4 0 13.3496 37.5251 2
-4 1 0 25.6257 47.0376 8
1 -4 0 41.348 181.537 3
1 -4 0 -1.12513 43.6709 2
-1 4 0 -134.171 119.86 1
4 -1 0 -93.8205 168.434 3
-4 1 0 -169.489 214.822 9
4 1 0 -19.6346 129.265 3
1 4 -1 120283 2235.87 7
4 -1 -1 118702 2245.15 3
1 4 1 117390 2233.2 7
-1 -4 1 119145 1964.06 9
4 1 1 113911 1452.75 8
-4 1 -1 123662 2040.29 9
-4 -1 -1 119850 2118.88 9
4 1 1 120782 2303.86 2
-4 -1 1 114043 2187.18 9
-4 1 1 114229 2019.46 1
-4 1 1 118291 1477.69 8
-1 -4 -1 112698 2112.13 9
-1 4 1 118942 2125.45 7
4 -1 1 117774 2290.18 2
-1 4 1 116311 1908.68 1
-1 4 -1 116104 2237.69 7
1 -4 -1 119915 2210.86 3
4 1 -1 117406 2115.93 3
4 1 1 120470 1636.33 3
4 -1 1 117955 2012.14 3
-1 -4 2 86978.2 1629.61 9
-1 -4 2 90778.8 1703.08 1
-1 -4 -2 90026.9 2045.04 9
1 -4 -2 91026.3 1958.56 3
4 -1 2 93197.1 1811.77 3
-4 1 2 87793.6 1721.56 8
-1 4 2 88061.5 1906.22 1
-1 -4 -2 89775.7 1590.66 3
-1 4 -2 87151.6 2061.11 7
4 -1 -2 88794.1 2104.5 3
-4 -1 -2 91901.1 1884.07 9
1 4 2 89387.5 1990.41 7
4 1 2 88921.9 1736.49 8
4 1 -2 87938.2 2061.49 3
-4 -1 2 91258.9 2042.99 9
-4 1 -2 92308.2 1712.91 9
4 -1 2 91286.3 2143.65 2
1 4 2 90042 2166.8 8
-4 -1 2 86273.1 1969.71 1
4 1 2 88186.4 2088.48 2
1 4 2 87719.1 1971.57 1
1 4 -2 91908 2087.78 7
1 -4 2 91049 1404.4 9
-4 1 2 85962.8 1971.48 1
-1 4 2 93407.7 1885.02 7
4 1 2 88414.9 1130.25 3
-1 4 2 90304.9 2131.16 8
-1 -4 -3 16139 953.574 9
-4 1 -3 15823 700.525 9
-4 -1 3 15878.2 950.082 1
1 4 3 14714 971.223 8
-1 -4 3 15848.2 793.77 1
1 4 3 15495 950.54 1
4 -1 -3 15738.6 981.067 3
-4 1 3 14953.2 937.678 1
-1 -4 3 15122.9 676.91 9
-4 1 3 15842.1 921.104 8
-1 4 3 15810 774.346 7
-1 -4 -3 15866.3 712.376 3
4 1 -3 14829.3 946.456 3
4 -1 3 16581.9 1022.32 2
-1 4 3 15339.1 909.248 1
1 4 -3 16089.1 946.961 7
4 1 3 15334.7 968.067 2
1 -4 -3 14849 862.18 3
-4 -1 -3 14672.1 793.176 9
-1 4 -3 15539.2 955.824 7
-1 4 3 14695.8 958.781 8
1 -4 3 14869.2 541.022 1
4 1 3 16092.5 915.796 8
1 4 -4 2986.55 486.219 7
1 -4 4 2820.16 307.71 1
-1 4 -4 2427.52 476.173 7
4 -1 4 2975.68 514.89 2
1 4 4 3016.8 463.588 1
4 -1 -4 3030.53 498.837 3
-1 4 4 2483.99 494.505 8
4 1 4 2867.17 506.588 2
-1 -4 -4 2913.47 458.041 9
1 -4 -4 2420.59 403.837 3
-4 -1 4 3282.31 512.348 1
1 4 4 2816.17 517.464 8
-1 -4 -4 2557.87 337.503 3
-4 1 4 2656.95 447.027 1
4 1 -4 2723.35 458.579 3
-4 1 -4 2934.15 293.37 9
-1 4 4 3057.03 472.989 1
-4 -1 -4 2874.3 400.085 9
-4 1 4 2994.82 474.855 8
4 1 4 2973.67 509.703 8
-1 -4 4 2960.73 397.203 1
-1 -4 5 20257.4 1105.6 1
1 4 5 20234.2 1372.55 8
-4 1 5 19643.7 1304.31 8
-1 4 5 18280.2 1222.11 1
-1 4 -5 19362 1230.32 7
4 1 5 19247.7 1346.4 8
-4 -1 -5 19995.6 1021.72 9
1 -4 5 18748.7 910.725 1
-1 -4 -5 20046.6 955.965 3
-1 -4 -5 21095.6 1234.43 9
-1 4 5 19906.2 1356.63 8
4 1 -5 20343.8 1323.96 3
1 4 -5 21000.1 1219.13 7
-4 -1 5 20368.2 1288.66 1
-4 1 5 21395.9 1327.66 1
1 -4 -5 20104 1176.07 3
1 4 5 20663 1283.24 1
4 -1 -5 21310.3 1336.04 3
1 4 6 1356.98 484.902 8
-1 4 6 1095.81 385.732 8
-4 1 6 928.142 265.246 1
-1 -4 -6 1606.91 390.297 9
4 1 -6 1497.26 410.253 3
1 4 -6 1950.49 446.102 7
-1 -4 6 2293.17 446.853 1
1 -4 -6 2070.88 427.987 3
-4 -1 -6 1987.73 363.704 9
4 -1 -6 1669.62 460.534 3
-1 -4 -6 1776.35 345.915 3
1 -4 6 1633.14 295.57 1
-4 -1 6 1946.9 478.048 1
1 4 6 1998.94 496.43 1
-1 4 6 1263.22 392.004 1
-1 4 -6 1686.45 418.173 7
1 4 -7 684.277 293.851 7
-1 4 7 315.704 336.156 8
1 4 7 961.376 537.016 8
4 1 -7 833.411 297.957 3
1 4 7 952.951 388.223 1
-1 4 -7 501.611 281.843 7
1 -4 -7 317.751 195.386 3
1 -4 7 409.523 167.24 1
4 -1 -7 692.337 324.956 3
-4 -1 7 946.967 393.652 1
-1 4 7 753.909 337.999 1
-4 1 7 780.216 442.98 1
-1 -4 -7 655.263 293.601 9
4 1 -8 -154.939 271.479 3
-1 4 8 -146.748 366.661 1
-1 -4 -8 -60.0073 254.649 9
-1 -4 8 116.688 212.063 1
1 4 8 730.511 480.844 8
1 4 8 160.529 302.436 1
-1 4 -8 20.8535 200.483 7
-1 4 8 620.517 490.678 8
4 -1 -8 4.43358 270.678 3
-4 -1 8 234.416 312.177 1
-4 1 8 -179.033 338.853 1
-4 1 -8 98.538 240.034 7
4 -1 9 263.565 255.535 5
-1 -4 9 444.289 252.136 4
-1 -4 9 395.344 239.519 5
-4 1 9 274.556 254.756 4
4 1 -9 154.343 276.58 3
1 4 9 -146.274 370.283 1
1 4 9 968.744 533.295 8
1 -4 9 152.966 189.967 4
4 -1 -9 463.874 353.736 3
-1 4 9 -197.088 401.435 8
-1 4 9 -300.84 424.298 1
-4 -1 9 261.242 405.764 1
-1 4 9 -225.701 311.083 4
-4 1 9 -138.073 395.145 1
1 -4 9 65.2252 230.188 5
4 1 9 240.366 259.794 5
-4 -1 9 -43.6854 194.685 4
4 1 10 -134.491 311.842 5
1 -4 10 82.9771 205.116 4
-4 1 10 10.1929 211.787 4
1 4 -10 495.165 368.674 3
-4 -1 10 -156.79 568.195 1
-1 -4 10 43.2552 228.033 4
4 -1 10 0.8971 210.588 5
1 -4 10 15.9708 250.736 5
-1 -4 10 111.511 340.053 5
-4 1 10 -190.468 461.399 1
-4 -1 10 372.927 235.939 4
4 1 -10 -420.899 383.11 3
1 4 10 174.515 182.473 4
4 -1 -10 852.457 488.347 3
-1 4 10 260.966 338.781 1
4 -1 10 77.7326 184.844 4
-1 4 10 139.042 303.7 4
1 4 10 138.615 423.18 1
1 4 11 -177.229 243.974 4
-1 4 11 -295.696 293.7 4
-4 1 11 -130.962 245.911 4
1 -4 11 26.8122 274.973 5
-4 -1 11 -123.334 483.721 1
-1 -4 11 31.7902 205.03 4
1 4 11 283.002 398.27 1
4 -1 11 13.1318 242.225 4
-1 4 11 -962.621 533.049 1
-4 1 11 -65.9439 397.778 1
-4 -1 11 26.5509 255.746 4
4 1 -11 979.606 417.283 3
4 -1 11 341.558 230.535 5
-1 -4 11 -664.514 350.625 5
4 1 11 -62.8813 193.728 4
4 1 11 47.9312 233.672 5
1 -4 11 -67.2045 222.145 4
1 4 12 -262.521 266.587 4
4 1 12 -431.115 344.313 5
4 1 12 -377.407 287.59 4
-4 -1 12 -356.598 246.776 4
1 -4 12 193.313 275.915 5
4 -1 12 237.644 227.821 4
1 -4 12 304.139 226.467 4
-4 1 12 372.796 244.123 4
-1 -4 12 -66.3736 281.346 5
4 -1 12 -244.727 325.747 5
-1 -4 12 389.044 323.077 4
-1 4 12 166.315 248.109 4
1 -4 13 -116.103 214.016 4
4 -1 13 290.683 305.397 5
-4 1 13 -260.008 282.245 4
1 4 13 161.261 199.766 4
4 -1 13 575.732 276.186 4
-4 -1 13 272.344 311.523 4
-1 -4 13 528.313 333.379 4
4 1 13 1.80605 259.623 5
-1 4 13 -215.355 247.333 4
-1 -4 13 209.621 252.824 5
1 -4 13 264.563 308.161 5
4 -1 14 91.7845 190.148 4
-1 -4 14 -104.453 250.536 4
-1 4 14 235.869 233.977 4
1 -4 14 -118.628 285.408 4
4 1 14 70.0357 206.014 5
4 -1 14 -8.13379 238.251 5
-4 1 14 -84.8103 229.719 4
1 -4 14 66.9861 216.355 5
-4 -1 14 186.11 255.164 4
1 4 14 -170.096 240.104 4
1 4 15 286.908 208.493 4
-1 -4 15 -73.2525 207.634 4
4 -1 15 420.2 308.43 5
1 -4 15 -267.999 225.792 4
-4 -1 15 -368.657 222.979 4
-4 1 15 -57.6777 164.671 4
1 -4 15 186.011 206.22 5
-1 4 15 -585.887 264.836 4
-4 1 16 -154.472 173.258 4
-4 -1 16 248.543 168.285 4
2 -4 0 5474.32 696.553 3
4 2 0 1855.17 286.224 3
-2 4 0 5076.52 436.862 1
4 -2 0 3914.24 627.349 3
2 4 0 1473.84 321.323 7
-4 2 0 1311.79 324.285 1
-2 -4 0 1750.29 327.731 9
-4 -2 0 1368.49 315.435 9
-2 4 0 1260.71 584.024 7
4 2 1 2538.05 238.075 3
4 -2 1 2328.57 416.373 3
2 4 1 2676.92 271.174 2
-4 2 1 3056.24 316.507 8
2 -4 1 2776.02 301.191 2
2 -4 1 2870.34 481.038 3
-2 -4 1 2262.63 348.4 9
2 4 1 2948.5 425.187 7
-2 4 1 3088.21 347.18 1
-2 4 1 2771.13 389.812 7
4 -2 1 2506.55 396.399 2
4 2 1 2700.51 288.946 8
-2 4 -1 2441.36 400.011 7
4 2 1 2482.99 385.447 2
-4 -2 1 2499 386.494 9
2 4 -1 2516.23 388.209 7
-4 2 1 3384.83 395.487 1
2 -4 -1 2867.53 425.754 3
-4 -2 -1 2416.88 368.334 9
-2 -4 -1 2404.13 352.613 9
4 -2 -1 3239.63 444.484 3
4 -2 2 6019.91 588.583 2
4 2 -2 4752.93 433.607 7
-2 4 2 7280.6 541.039 7
-4 2 2 7831.26 656.943 1
2 4 2 4721.11 525.803 7
4 -2 2 5547.98 544.905 3
-4 2 2 6636.5 556.573 8
4 -2 -2 6839.59 668.604 3
-2 4 2 7167.87 601.761 1
-2 4 2 5217.81 639.993 8
-4 -2 2 4842.12 503.746 9
2 4 -2 4325.43 485.238 7
4 2 2 4500.4 489.917 2
-4 -2 -2 4345.57 476.713 9
2 -4 -2 7309.34 659.111 3
2 4 2 4187.27 506.735 8
-4 2 2 5268.53 394.394 7
-2 -4 2 4115.97 418.923 9
-4 -2 2 4006.34 481.028 1
4 2 2 4770.64 448.786 8
-2 -4 -2 4757.36 518.074 9
-2 4 -2 5844.2 612.829 7
-2 -4 -3 27699 1256.47 9
4 -2 -3 22507.7 1206.28 3
4 2 3 25640.7 1361.31 2
-4 2 3 21534.9 1090.5 8
-2 -4 3 29207.5 1221.16 1
-4 -2 -3 24141.9 1173.61 9
2 4 3 27400 1293.19 1
-4 2 3 21145.9 1128.1 1
-2 4 3 20036.4 1064.92 1
2 -4 -3 20114.2 1091.84 3
2 4 3 27743.1 1376.68 8
-2 4 -3 19749.5 1128.95 7
-2 4 3 21052.3 1165.33 8
-2 -4 -3 19576 608.025 3
4 -2 3 20484.1 1163.6 2
-4 -2 3 28556.4 1316.75 1
4 2 -3 25346.4 974.89 7
-2 4 3 20176.1 823.377 7
-2 -4 3 24332.8 1078.98 9
4 2 3 23777 1209.6 8
2 4 -3 28316.8 1254.65 7
-4 -2 3 30447.1 1296.79 9
4 -2 -4 10544.6 905.745 3
2 -4 4 9028.86 490.029 1
2 4 4 9627.9 881.486 8
2 4 4 9135.08 804.265 1
4 2 -4 9428.18 594.283 7
-4 -2 -4 10000.1 754.83 9
2 -4 -4 9756.63 841.302 3
-2 -4 4 9360.47 741.135 1
-2 4 4 9527.89 825.239 1
-2 -4 4 9452.09 632.513 9
-4 2 4 9972.48 847.7 1
-4 -2 4 9892.64 831.109 1
-2 -4 -4 8371.2 441.868 3
-2 4 4 9959.99 874.495 8
-2 4 -4 9523.98 839.459 7
2 4 -4 9053.95 752.548 7
-2 -4 -4 9263.14 779.823 9
-4 2 4 10392.3 874.491 8
4 2 4 10855 880.179 8
2 -4 5 28202.1 1078.88 1
-4 -2 5 30110.7 1610.25 1
-2 4 5 28187.3 1502.13 1
2 4 5 29827.2 1669.36 8
4 -2 -5 30643.1 1639.1 3
4 2 -5 24958 938.461 7
2 4 5 29362.2 1540.52 1
4 2 5 29831.2 1646.59 8
-4 -2 -5 28611.2 1340.08 9
-4 2 5 27670.9 1519.94 1
-2 -4 -5 29478 1464.47 9
-2 4 -5 27752.6 1525.48 7
-2 -4 5 29667 1452.87 1
-2 4 5 31453.7 1692.49 8
2 -4 -5 28932.9 1494.87 3
2 4 -5 28184.8 1376.08 7
-4 2 5 24935.6 1567.77 8
-2 4 6 30621.4 1841.28 8
-2 4 6 30122.2 1725.25 1
-2 -4 6 33482.9 1678.64 1
2 4 6 32972.3 1813.5 1
4 2 -6 31674.8 1830.3 3
2 -4 -6 30992.5 1652.33 3
-4 -2 -6 31436.6 1474.59 9
-2 4 -6 29276.3 1638.3 7
2 4 6 34521.3 1986.78 8
4 2 6 31734.5 1924.77 8
4 -2 -6 32234.9 1828.47 3
2 -4 6 29054.1 1285.47 1
2 4 -6 29635.1 1487.78 7
-2 -4 -6 31461.4 1650.78 9
-4 2 6 31968.7 1777.36 1
-4 -2 6 34180.2 1862.85 1
-4 2 6 28237.9 1801.45 8
-4 2 7 25752.2 1964.81 8
2 4 7 34290.4 2027.66 1
2 4 7 34107.8 2256.44 8
-4 2 -7 36371.3 2161.53 7
-4 2 7 36036 2059.86 1
-2 4 -7 32240 1862.64 7
4 2 -7 33292.6 2026.71 3
-2 4 7 34347.4 2025.06 1
-2 -4 -7 33963.6 1817.52 9
-4 -2 7 37055.2 2103.46 1
-2 -4 7 33786.3 1818.54 1
-2 4 7 33328 2160.75 8
2 -4 -7 31589.8 1825.77 3
4 -2 -7 36781.9 2085.64 3
4 2 7 35203.6 2214.72 8
4 2 -8 14476.9 1492.79 3
4 -2 -8 14182.7 1416.08 3
2 -4 -8 14250.9 1287.05 3
-4 -2 8 16505.8 1526.08 1
-4 2 8 15563.9 1488.25 1
2 4 8 17240.4 1545.46 1
2 4 8 13221.4 1613.22 8
-2 4 8 13691.2 1622.25 8
-2 4 -8 13783.8 1307.87 7
-2 -4 8 14228.8 1285.66 1
-2 4 8 15212.7 1478.36 1
-4 2 -8 14583.7 1448.72 7
4 -2 -9 2631.82 598.628 3
-2 4 9 2444.02 489.653 4
4 2 9 2353.16 533.459 5
2 -4 9 2365.14 564.167 5
2 4 -9 2080.05 634.478 3
-4 -2 9 2479.99 626.9 1
2 -4 9 2127.96 460.41 4
4 2 -9 2159.64 679.978 3
-2 4 9 1882.31 600.049 1
-4 -2 9 1911.42 444.736 4
-2 -4 9 2505.03 490.573 4
2 4 9 2439.07 644.582 1
-4 2 -9 1719.98 512.938 7
4 -2 9 1912.72 466.488 5
-4 2 9 2591.2 503.481 4
-4 2 9 2214.84 648.774 1
2 4 9 1877.28 787.096 8
-2 4 9 1795.39 632.627 8
-4 -2 10 380.34 278.189 4
4 2 -10 258.199 320.186 3
4 2 10 315.342 264.233 5
-2 -4 10 522.336 268 4
2 -4 10 561.681 295.649 5
-4 2 10 235.397 268.807 4
2 4 10 -87.8274 341.089 1
4 -2 10 450.768 247.967 4
-2 -4 10 564.65 295.978 5
-4 2 10 -130.139 392.081 1
4 -2 -10 -271.614 335.412 3
2 4 -10 251.309 272.016 3
-2 4 10 163.044 219.525 4
2 -4 10 411.333 274.977 4
2 4 10 524.805 274.61 4
-4 -2 10 -33.8208 406.188 1
-2 4 10 808.843 448.132 1
4 -2 10 277.723 298.758 5
4 2 11 104.223 230.396 5
2 4 -11 68.4694 331.994 3
2 -4 11 -2.00361 260.706 5
-2 -4 11 14.2463 248.359 5
4 2 -11 -482.429 550.069 3
-4 -2 11 -107.416 336.443 1
2 -4 11 244.925 264.357 4
-4 2 11 837.287 427.519 1
-2 -4 11 276.119 267.225 4
-2 4 11 -337.184 467.107 1
4 -2 11 -56.4105 282.357 5
2 4 11 103.719 200.899 4
4 -2 11 -114.987 215.778 4
-4 2 11 451.224 348.145 4
-4 -2 11 -225.797 209.037 4
-2 4 12 462.853 245.64 4
-4 -2 12 116.326 216.168 4
2 4 12 336.228 197.888 4
4 -2 12 440.251 287.267 5
-2 -4 12 542.182 332.101 5
2 -4 12 -90.6083 255.979 5
4 -2 12 760.225 345.897 4
2 -4 12 876.956 388.085 4
-4 2 12 111.253 237.592 4
-2 -4 12 635.652 334.151 4
4 2 12 542.538 288.152 5
-4 -2 13 715.642 332.612 4
4 2 13 218.02 220.513 5
-2 -4 13 48.4907 215.781 5
2 4 13 -54.7245 214.274 4
2 -4 13 39.4802 238.543 5
-2 4 13 372.25 247.248 4
4 -2 13 174.811 271.506 4
4 -2 13 854.108 401.307 5
-2 -4 13 443.072 282.774 4
2 -4 13 1065.43 414.416 4
-4 2 13 255.365 265.616 4
2 4 14 34.1134 237.783 4
4 -2 14 -296.228 207.398 4
-4 -2 14 104.8 200.499 4
2 -4 14 -160.351 269.966 4
-4 2 14 418.694 246.231 4
4 -2 14 144.111 233.725 5
2 -4 14 197.037 241.536 5
-2 4 14 -170.158 236.781 4
4 2 14 202.593 225.456 5
-2 -4 14 233.215 257.035 4
2 -4 15 -327.306 231.133 4
-4 -2 15 180.097 218.023 4
-2 4 15 -236.863 200.557 4
-4 2 15 120.588 202.377 4
-2 -4 15 -272.426 217.299 4
4 -2 15 7.03734 190.08 5
2 -4 15 -27.3925 191.191 5
-4 2 16 -164.367 156.936 4
-4 -2 16 129.681 155.302 4
-2 4 16 -261.752 181.275 4
-2 -4 16 138.923 141.688 4
-3 4 0 84.7376 206.833 7
-3 4 0 74.7218 113.505 1
-4 3 0 43.6546 199.001 7
-4 -3 0 71.3044 222.214 9
-3 -4 0 -38.3674 173.17 9
-4 3 0 111.964 129.079 1
3 -4 0 -113.312 208.821 3
4 -3 0 -26.2547 204.855 3
3 4 0 100.345 201.528 7
-3 -4 -1 23984.1 1085.8 9
3 4 1 25707.7 1129.04 8
-4 -3 -1 24147.1 1062.36 9
-4 -3 1 23850.9 1074.18 9
3 -4 1 24775 946.302 2
3 -4 -1 24544 1131.74 3
4 -3 1 26451 1161.52 3
4 3 1 24487.4 964.396 8
4 3 1 26374.7 1111.42 2
-3 4 -1 25560.1 1165.7 7
-3 4 1 24710.8 940.857 1
3 -4 1 27943.3 1225.66 3
3 4 1 24692.6 1137.44 7
-3 4 1 26781.1 1030.47 7
4 -3 1 25750.5 1094.96 2
4 -3 -1 25513.4 1171.67 3
4 3 -1 23732.7 1062.56 7
-4 3 1 24755 974.593 8
-4 3 -1 24386.4 667.214 1
-4 3 1 25102.2 971.558 7
-3 -4 1 24447.7 1060.34 9
3 4 -1 25355 1114.84 7
3 4 1 25412.2 939.067 2
4 3 1 23444.2 712.935 3
-4 3 1 24972 999.893 1
-3 4 2 350.031 212.363 1
-4 -3 -2 390.791 181.484 9
-3 -4 2 361.326 203.643 9
3 4 2 666.741 228.653 2
4 3 2 374.173 209.967 8
-4 -3 2 671.322 261.591 1
3 4 -2 778.907 288.122 7
-3 4 -2 416.2 250.538 7
3 -4 -2 503.21 257.503 3
-4 -3 2 604.281 222.251 9
4 -3 -2 458.488 251.946 3
-3 4 2 497.292 188.819 7
3 -4 2 499.959 220.301 2
4 -3 2 352.06 223.793 2
-3 -4 -2 378.164 206.87 9
4 3 -2 850.889 257.718 7
-4 3 2 328.859 229.823 8
-4 3 -2 567.662 106.831 1
-4 3 2 575.125 176.851 7
-3 4 2 506.74 275.982 8
-4 3 2 948.588 291.807 1
4 -3 2 409.222 239.739 3
3 4 2 330.307 219.147 8
4 3 2 334.795 215.255 2
4 -3 3 40963.3 1637.38 2
3 4 -3 39375.7 1463.37 7
-3 4 3 39825.1 1084.64 7
4 -3 -3 40956.4 1658.04 3
4 3 3 40678.7 1563.56 2
4 3 3 38616.5 1515.96 8
-3 4 3 37482.5 1494.03 1
-4 3 3 31884.9 683.048 7
-4 -3 3 39697.5 1488.48 9
-3 -4 3 38394.8 1386.26 9
4 3 -3 37537 1332.17 7
-4 -3 -3 40944.3 1525.68 9
-3 -4 3 39882.7 1471.45 1
-4 -3 3 38046.5 1504.92 1
3 -4 -3 39381.1 1579.1 3
-3 -4 -3 39588.3 1520.1 9
-4 3 3 39292.8 1552.76 1
-3 4 -3 39091.3 1670.81 7
-3 4 3 38197.1 1575.05 8
-4 3 3 37882.3 1450.85 8
3 4 3 41126.5 1645.17 8
-3 -4 4 45171.2 1547.22 9
-3 -4 4 46929.7 1743.55 1
-4 -3 4 46243.8 1667.86 9
4 3 -4 43589.7 1469.81 7
4 -3 -4 45560 1890.98 3
4 3 4 45179 1864.1 8
-4 -3 -4 47978.5 1760.3 9
3 4 4 48976.5 1947.29 8
-3 4 4 45667.1 1857.79 8
3 4 -4 47536.7 1681.52 7
-3 4 4 46822.6 1811.33 1
3 -4 -4 48319.5 1887 3
-4 3 4 43167.6 1785.46 8
-4 3 4 47153.2 1832.64 1
-4 -3 4 47181.8 1835.87 1
-3 4 -4 48360.3 1958.09 7
-3 -4 -4 48789.1 1800.79 9
3 4 5 7819.14 817.228 1
4 -3 -5 9555.11 941.284 3
4 3 5 9140.31 932.434 8
-3 -4 -5 8603.72 823.654 9
3 4 5 8776.68 967.609 8
-4 -3 -5 8395.79 804.088 9
3 4 -5 9006.18 792.242 7
-4 3 -5 9672.81 1039.43 7
-3 -4 5 9199.16 861.457 1
-4 3 5 7752.55 821.087 1
-4 -3 5 9193.49 898.12 1
-3 4 5 8338.37 919.229 8
-4 3 5 8160.08 889.784 8
4 3 -5 8827.82 698.383 7
-3 4 -5 8397.46 899.646 7
3 -4 -5 8364.23 881.372 3
-3 4 5 8116.7 852.171 1
-3 -4 -6 669.345 271.446 9
3 4 6 1175.96 417.002 1
-3 4 -6 1392.29 382.359 7
4 3 6 1522.55 458.666 8
-4 -3 -6 667.102 263.582 9
-4 -3 6 941.118 339.867 1
-4 3 6 626.535 345.282 1
-4 3 -6 1670.46 489.73 7
-3 -4 6 791.319 323.187 1
3 4 -6 889.374 302.233 7
4 -3 -6 1017.94 360.564 3
-3 4 6 811.576 356.536 1
3 4 6 1077.19 396.722 8
-3 4 6 955.475 412.546 8
3 -4 -6 978.341 399.812 3
-4 3 6 586.441 356.329 8
-4 -3 7 430.138 284.507 1
3 4 7 -173.111 373.985 8
3 4 7 -82.1813 291.158 1
-3 4 7 -466.536 423.385 8
-4 3 -7 545.132 407.846 7
-4 -3 -7 430.207 292.653 9
-4 3 7 291.743 288.811 8
4 3 -7 -40.3195 268.72 3
3 -4 -7 -202.194 285.687 3
-3 -4 7 466.142 307.891 1
4 3 7 -170.046 311.512 8
-3 -4 -7 -211.317 276.433 9
-4 3 7 123.783 250.278 1
-3 4 -7 565.67 366.518 7
-3 4 7 83.6789 251.933 1
4 -3 -7 89.4373 322.005 3
-4 3 8 -41.8335 293.974 8
4 -3 -8 910.272 393.624 3
-3 4 8 -213.822 381.365 8
-3 4 -8 1585.8 518.083 7
4 3 8 470.916 426.313 8
-3 4 8 895.926 369.242 1
-4 -3 8 986.943 449.763 1
3 -4 -8 1154.25 412.542 3
-3 -4 8 1275.79 494.914 1
-4 3 -8 995.773 394.615 7
4 3 -8 1327.82 536.435 3
-4 3 8 662.444 343.468 1
3 4 8 249.082 338.244 8
-3 4 9 -39.5989 381.858 8
4 -3 9 455.942 180.12 4
-4 3 -9 1189.48 514.326 7
4 3 9 373.236 242.975 5
4 -3 -9 -681.773 492.919 3
-3 4 -9 411.211 350.281 7
-4 3 9 -226.642 334.199 1
-3 -4 9 233.695 269.543 1
4 -3 9 328.795 265.241 5
4 3 -9 305.839 272.69 3
-4 3 9 149.223 177.908 4
-4 -3 9 518.788 374.078 1
-3 4 9 113.053 203.364 4
-3 -4 9 858.27 296.852 4
3 4 9 603.911 333.957 8
3 4 9 681.714 328.707 5
-3 -4 9 150.164 246.16 5
3 4 -9 115.863 281.3 3
3 -4 9 -49.697 298.687 5
-3 4 9 475.603 369.496 1
3 -4 9 315.02 185.27 4
-4 -3 9 263.203 216.234 4
3 4 -10 58.8574 478.528 3
3 4 10 1036.29 358.403 5
-3 4 10 487.607 273.795 4
-3 4 10 949.507 524.505 1
-3 -4 10 650.363 341.072 4
-4 3 10 1299.34 416.671 4
3 -4 10 653.828 343.539 4
4 3 10 337.056 291.904 5
-4 -3 10 821.113 333.861 4
4 -3 10 688.462 365.772 4
-4 -3 10 374.397 354.908 1
-4 3 10 1745.78 717.922 1
3 -4 10 630.417 340.035 5
4 -3 10 316.348 243.802 5
4 3 -10 1035.76 550.172 3
-3 -4 10 348.234 239.968 5
4 3 -11 3.46848 244.627 3
3 4 11 1415.7 460.636 5
3 -4 11 1297.39 439.263 5
4 3 11 2122.96 572.667 5
-4 3 11 1386.79 678.023 1
4 -3 11 1408.26 477.86 5
3 4 -11 1798.97 678.792 3
-4 3 11 1669.31 447.687 4
-4 -3 11 1076.71 366.929 4
-3 -4 11 1492.44 458.961 5
-3 4 11 1276.97 450.248 4
3 -4 11 1089.42 405.65 4
4 -3 11 1485 440.652 4
-3 4 11 1417.23 613.105 1
-3 -4 11 1813.1 475.084 4
4 -3 12 344.391 289.35 4
3 -4 12 -222.372 301.028 5
-3 4 12 -192.126 303.335 4
-3 -4 12 368.816 248.11 4
4 3 12 89.3066 250.063 5
-4 -3 12 44.8295 254.604 4
3 -4 12 295.024 263.15 4
4 -3 12 -381.786 399.746 5
-4 3 12 123.879 214.954 4
-3 -4 13 -80.7247 224.262 4
4 3 13 -327.769 276.359 5
4 -3 13 -488.472 361.648 5
-4 -3 13 -183.408 235.758 4
-4 3 13 106.809 226.586 4
3 -4 13 315.585 297.88 5
4 -3 13 -331.808 272.657 4
-3 4 13 -103.582 218.15 4
3 -4 13 -7.96175 228.492 4
-4 -3 14 -95.4556 225.012 4
3 -4 14 -380.255 280.43 4
-4 3 14 -232.798 222.774 4
-3 -4 14 76.7307 197.258 4
3 -4 14 45.6661 203.556 5
4 -3 14 13.1902 181.992 4
4 -3 14 -82.6924 269.097 5
-3 4 14 -90.9491 226.318 4
-3 -4 15 -82.3366 195.862 4
-4 -3 15 -127.996 205.463 4
-4 3 15 -417.29 242.715 4
4 -3 15 -393.401 253.374 5
-3 4 15 -214.779 247.834 4
-4 3 16 -115.737 155.584 4
-3 4 16 161.813 161.026 4
-3 -4 16 3.25812 139.773 4
-4 -3 16 -113.811 156.541 4
-4 -4 0 2675.55 432.102 9
4 4 0 2359.69 392.044 7
4 -4 0 7208.37 1027.51 3
-4 4 0 9425.69 704.382 1
-4 4 0 4045.66 753.006 7
-4 4 1 2149.38 320.699 1
4 4 1 10102.5 752.928 8
4 -4 1 2066.54 389.684 3
-4 4 1 2418.55 368.356 8
-4 4 -1 2623.71 466.653 7
4 -4 1 2234.5 360.267 2
-4 -4 1 10943.7 792.081 9
-4 4 -1 2133.35 184.94 1
-4 -4 -1 9058.32 781.211 9
4 4 -1 10878.5 769.819 7
-4 4 1 1899.55 301.937 7
4 4 1 10905.7 737.821 2
4 -4 -1 2258.35 404.552 3
4 -4 2 80021.4 2036.61 2
-4 4 2 82601.7 2108.72 8
-4 -4 2 76249.4 2018.74 9
-4 4 2 80460.2 2045.1 1
4 4 2 76027.6 1948.34 2
4 4 -2 73090 2009.76 7
4 -4 -2 77549.8 2261.89 3
4 -4 2 82852.1 2280.23 3
4 4 2 75658.9 2067.61 8
-4 4 2 80714.2 1794.65 7
-4 -4 -2 75731.2 2096.56 9
-4 4 -2 80683.3 2389.06 7
4 4 -3 34789.7 1443.95 7
-4 -4 3 37270.7 1531.55 1
-4 -4 -3 34597.4 1539.21 9
4 -4 -3 36905.5 1697.96 3
4 4 3 35357.3 1573.11 8
4 -4 3 34413.2 1550.37 2
-4 4 -3 39282.8 1794.4 7
4 4 3 34032.9 1437.96 2
-4 4 3 40067.9 1653.98 8
-4 -4 3 37427.6 1498.92 9
-4 4 3 37583.2 1559.17 1
-4 4 3 34265.3 1025.74 7
-4 -4 4 54534.4 2001.6 1
-4 -4 4 50997.8 1827.35 9
-4 -4 -4 52210.5 1955.34 9
-4 4 4 56054.6 2097.82 8
4 -4 -4 53389 2122.56 3
4 4 4 52284.5 2063.78 8
-4 4 -4 55355.4 2251.27 7
-4 4 4 53379.4 2015.71 1
4 4 -4 49553.3 1750.89 7
-4 4 5 60155.7 2330.84 1
4 -4 -5 64212 2479.15 3
4 4 -5 59051.2 1977.75 7
-4 -4 -5 59841.6 2217.6 9
4 4 5 62282.2 2483.06 8
-4 -4 5 65311.6 2405.93 1
-4 4 -5 66641.7 2630.24 7
-4 4 5 62311 2414.54 8
-4 4 6 30592 1920.54 8
4 -4 -6 28421.8 1766.36 3
-4 -4 -6 30746.7 1671.4 9
-4 4 -6 30347.1 1898.87 7
-4 -4 6 30640.9 1789.39 1
4 4 6 29897 1960.14 8
-4 4 6 30737.5 1813.75 1
-4 -4 -7 13799.9 1196.89 9
4 -4 -7 13258.2 1319.13 3
4 4 7 13531.5 1475.8 8
-4 4 7 12246.5 1254.39 1
-4 4 7 12666.6 1381.99 8
-4 4 -7 12838.1 1322.78 7
-4 -4 7 13280 1305.66 1
4 4 -8 7415.74 1095.64 3
-4 4 8 8767.93 1161.29 1
4 4 8 8186.01 1240.5 8
-4 4 8 6898.61 1121.62 8
4 -4 -8 8743.12 1102.7 3
-4 4 -8 8332.75 1124.76 7
-4 -4 8 9389.94 1191.69 1
-4 4 -9 4671.32 877.128 7
-4 4 9 4393 674.346 4
-4 -4 9 4640.23 875.588 1
-4 4 9 4970.8 999.599 1
4 4 9 4407.66 705.054 5
4 -4 9 4856.62 721.784 5
4 -4 9 5141.45 726.924 4
4 -4 -9 4434.55 830.483 3
-4 -4 9 5388.43 717.926 4
4 4 -9 4536.13 876.302 3
-4 -4 10 147.534 198.868 4
4 -4 10 36.5205 259.66 5
4 -4 10 213.79 219.468 4
-4 4 10 285.64 268.696 4
-4 4 10 681.783 337.885 1
4 4 10 419.16 329.152 5
4 4 -10 179.625 335.992 3
-4 -4 11 122.354 223.623 4
4 -4 11 -234.742 308.95 5
4 4 11 218.216 330.413 5
-4 4 11 537.475 356.78 4
4 -4 11 -57.6599 268.052 4
-4 -4 12 -42.3494 279.806 4
4 -4 12 33.2873 300.346 5
-4 4 12 504.649 320.777 4
4 -4 12 -74.25 224.879 4
4 4 12 -101.352 240.554 5
4 -4 13 -70.6268 191.942 4
4 4 13 205.625 245.326 5
4 -4 13 743.671 381.13 5
-4 -4 13 164.499 218.2 4
-4 4 13 33.2338 238.464 4
-4 4 14 -115.905 229.278 4
-4 -4 14 -0.68528 212.254 4
4 -4 14 293.047 280.481 5
4 -4 15 225.829 198.031 5
-4 4 15 -103.125 210.236 4
-4 -4 15 -47.8749 173.027 4
-4 4 16 298.037 181.689 4
-4 -4 16 262.515 157.431 4
0 5 0 -259.408 251.255 7
5 0 0 87.9707 173.165 3
0 -5 0 -150.201 208.784 9
-5 0 0 -12.1356 188.459 9
5 0 1 50914.4 1651.18 2
0 -5 -1 51546.1 1511.76 3
0 -5 1 52459.2 1425.17 9
-5 0 -1 54399.8 1576.35 9
-5 0 1 50942.4 1624.28 9
0 5 1 53258.6 1629.06 7
0 5 1 49322.5 1398.99 1
5 0 -1 52916.8 1599.02 3
0 5 -1 51214.5 1667.2 7
5 0 1 50807.7 1358.18 3
-5 0 1 49209.2 1523.04 1
5 0 2 549811 4223.38 3
0 5 2 578497 5398.05 7
0 5 -2 562494 5698.91 7
-5 0 -2 557073 4907.32 9
0 -5 2 560280 4355.49 9
0 5 2 567094 5808.37 8
0 -5 -2 559747 4949.19 3
0 5 2 548492 5237.08 1
-5 0 2 547348 5339.09 1
5 0 -2 555041 5561.4 3
5 0 2 553796 5656.04 2
0 -5 2 550901 3848.43 1
5 0 3 148069 3138.6 2
0 5 3 143695 2752.5 7
-5 0 3 146146 2994.5 1
0 -5 -3 149633 2657.15 3
5 0 -3 139761 3064.72 3
0 5 3 140221 2905.89 1
0 5 3 143539 3111.03 8
0 -5 3 143236 2015.68 9
0 -5 3 140975 2071.74 1
-5 0 -3 142551 2499.99 9
0 5 -3 148105 3106.3 7
-5 0 -4 112375 2252.81 9
0 -5 -4 112765 2429.86 3
0 5 -4 114469 2875.09 7
0 5 4 117327 2881.86 1
0 5 4 118644 3110.57 8
-5 0 4 111927 2898.41 1
0 -5 4 111975 2101.85 1
5 0 -4 116695 2992 3
5 0 4 123753 3132.99 2
5 0 -5 24018.9 1513.15 3
-5 0 5 27696 1564.5 1
0 5 -5 27564.7 1509.22 7
-5 0 -5 24694 1071.4 9
0 -5 -5 26311.1 1273.73 3
0 5 5 24922.8 1473.09 1
0 5 5 24562.7 1547.67 8
0 -5 5 25538.2 1118.88 1
0 5 6 8371.46 951.918 1
0 5 -6 8236.91 901.615 7
0 -5 6 8233.15 711.734 1
-5 0 6 9089.84 1005.08 1
0 5 6 8285.63 1043.09 8
5 0 -6 8481.2 978.322 3
0 -5 -6 8226.8 758.808 3
-5 0 7 111.879 331.602 1
0 -5 -7 377.989 259.374 9
0 5 7 273.866 293.933 1
0 5 7 176.057 353.636 8
5 0 -7 -98.2468 327.65 3
0 5 -7 34.7089 236.733 7
0 5 -8 11803.9 1162.55 7
-5 0 8 12416.3 1420.17 1
0 5 8 13211.8 1402.27 1
5 0 -8 10107.6 1282.3 3
0 -5 -8 11483.3 1190.43 9
0 5 8 8711.5 1315.2 8
0 5 9 12548.7 1077.31 4
0 5 9 12684.9 1502.8 1
-5 0 -9 13277.6 1511.66 7
5 0 9 12587 1147.88 5
5 0 -9 11459.1 1428.19 3
-5 0 9 13370.8 1556.89 1
-5 0 9 12712.3 1073.12 4
0 5 9 11693 1682.25 8
0 -5 9 13474.6 1117.76 4
0 -5 9 11646.7 1162.74 5
0 5 10 5928.44 1350.18 8
0 5 10 8916 1343.66 1
5 0 -10 6063.51 1181.31 3
-5 0 10 8035.6 1305.96 1
-5 0 10 7976.65 911.619 4
0 -5 10 8274.17 1042.64 5
0 -5 10 8710.28 945.806 4
5 0 10 7541.54 948.336 5
0 5 10 7470.79 890.814 4
0 5 11 2264.13 610.988 1
0 5 11 3158.7 609.475 4
0 -5 11 3910.9 675.005 4
-5 0 11 3923.28 661.873 4
-5 0 11 2491.82 715.188 1
0 -5 11 4379.67 807.983 5
5 0 11 4146.18 730.413 5
0 5 12 421.7 283.966 4
5 0 12 953.043 406.455 5
0 -5 12 627.469 328.101 4
-5 0 12 118.527 221.559 4
0 -5 12 1070.31 449.302 5
0 5 13 763.963 345.357 4
-5 0 13 -205.775 271.805 4
0 -5 13 670.713 353.771 5
5 0 13 369.183 263.022 5
0 -5 13 476.417 304.856 4
5 0 14 -204.86 202.329 5
0 -5 14 533.718 298.25 5
0 -5 14 410.05 288.041 4
0 5 14 284.615 237.728 4
-5 0 14 656.419 300.36 4
5 0 15 563.079 267.555 5
0 -5 15 75.9293 210.803 4
0 5 15 -173.218 194.843 4
-5 0 15 295.665 211.491 4
-5 0 16 134.881 154.384 4
5 1 0 136733 2299.4 3
-5 1 0 136568 2330.54 1
1 -5 0 140206 2673.95 3
-5 1 0 141401 2623.5 9
-1 5 0 142520 2687.8 7
-5 -1 0 137803 2555.93 9
1 5 0 140675 2665.93 7
5 -1 0 137815 2521.91 3
-1 -5 0 136093 2470.56 9
-5 -1 -1 1573.22 348.657 9
5 -1 -1 3720.96 558.592 3
-5 1 1 2978.49 283.942 8
-1 5 1 3345.34 439.123 1
5 -1 1 2101.1 425.425 3
-1 -5 1 1969.58 330.329 9
-1 5 -1 2953.56 539.482 7
-5 -1 1 2048.84 399.696 9
1 5 -1 1951.96 372.831 7
5 1 -1 1845.89 344.178 3
5 1 1 1747.73 369.361 2
5 1 1 1587.25 193.634 8
-5 1 -1 1868.8 427.471 9
-5 1 1 4141.93 499.561 1
5 -1 1 2602.83 463.778 2
1 -5 -1 4587.7 559.147 3
-1 5 1 3265.13 455.513 7
1 5 1 1623.89 356.648 7
5 1 1 1661.97 285.811 3
-1 -5 -1 1704.81 351.436 9
1 5 2 15711.8 945.191 7
5 -1 2 13751.9 933.278 2
1 -5 2 11448 397.837 1
-5 -1 -2 13917.1 832.353 9
5 -1 -2 14017.4 942.022 3
-1 5 -2 13515.8 917.153 7
-1 -5 -2 14671.6 922.96 9
5 1 2 12828.4 687.934 8
1 5 2 14507.4 869.358 1
5 1 -2 15561.8 948.677 3
1 -5 -2 14270 876.732 3
-1 5 2 14699.3 970.606 8
5 1 2 16039.7 1004.15 2
1 5 -2 14981 948.604 7
1 5 2 14594.6 988.947 8
5 1 2 14082.8 572.514 3
-5 -1 2 16175.4 970.831 9
-5 1 2 14216.2 893.465 1
5 -1 2 13997 781.001 3
-5 1 -2 13618.4 770.102 9
-1 -5 -2 14352.2 745.504 3
-5 -1 2 13947.1 909.964 1
-1 5 2 14204.1 841.299 7
-1 -5 2 13548.9 737.796 9
-5 1 2 13297.4 694.832 8
-1 5 2 13733.2 825.711 1
1 -5 2 13740 668.869 9
-5 -1 -3 39608.6 1449.6 9
-1 -5 3 37692.4 1181.75 9
1 5 3 40258.6 1726.65 8
1 5 3 40890 1586.56 7
-1 -5 3 39764.9 1297.53 1
-1 5 3 40061.3 1560.82 1
-1 5 -3 38395.9 1628.15 7
-1 5 3 38680.2 1374.61 7
-5 1 3 40913.3 1631.45 1
1 5 3 37789.8 1573.8 1
1 -5 3 36179.3 872.39 9
5 -1 -3 40950.2 1682.72 3
5 1 -3 40597 1656.77 3
5 1 3 40186.4 1679.03 2
-1 5 3 40846 1689.11 8
1 -5 3 33526.8 771.296 1
1 5 -3 41832.9 1643.8 7
-1 -5 -3 39616.8 1617.92 9
5 1 3 36864.3 1392.23 8
-5 1 3 40776.5 1480.47 8
5 -1 3 39995 1728.22 2
-1 -5 -3 43083.7 1288.27 3
-5 -1 3 40591.3 1627.53 1
-5 1 -3 39010.2 1263.89 9
1 -5 -3 40503.8 1521.77 3
-5 -1 4 20086.5 1241.37 1
-1 5 -4 16228.7 1119.29 7
5 -1 4 17618.7 1226.19 2
5 -1 -4 16853.8 1175.68 3
1 5 4 17870.5 1271.11 8
5 1 -4 17188.1 1188.22 3
-5 1 4 18529.4 1189.79 1
1 5 4 18079.8 1198.13 1
5 1 4 17994.2 1228.34 2
-1 -5 4 16382.2 747.047 9
-5 1 -4 17947.4 833.122 9
-1 5 4 17761.4 1142.25 1
1 5 -4 18221.2 1158.87 7
-1 -5 -4 17872.5 878.973 3
-5 -1 -4 17412 976.468 9
-1 5 4 17544.2 1265.29 8
-1 -5 4 17705.3 951.491 1
1 -5 4 15764.5 658.785 1
-1 -5 -4 17897.4 1138.53 9
5 1 4 17266.2 1117.05 8
1 -5 -4 18116.5 1084.29 3
-5 1 4 18279.4 1123.08 8
-5 1 5 19151.1 1387.32 1
1 5 5 12664.4 1152.96 8
5 1 5 11005.7 1046.92 8
-1 -5 -5 12488.1 1032.11 9
-5 -1 -5 12457.1 857.061 9
-1 -5 5 12532.6 884.036 1
-5 -1 5 13735.7 1127.33 1
1 5 5 12454.7 1068.74 1
5 1 -5 11778.1 1118.9 3
-1 -5 -5 12365.4 792.251 3
-1 5 -5 15024.5 1155.74 7
-1 5 5 19132.8 1422.27 8
-1 5 5 16720.9 1250.58 1
1 5 -5 12857 1025.37 7
1 -5 5 11810.9 690.834 1
1 -5 -5 16645.4 1160.17 3
5 -1 -5 18890.7 1392.71 3
-1 5 6 2286.79 560.529 8
-1 -5 6 2265.36 425.783 1
1 5 6 2989.71 701.954 8
-1 5 -6 1899.44 447.648 7
1 5 6 2991.32 610.801 1
1 -5 -6 2279.81 472.506 3
-1 5 6 2431.92 566.07 1
-5 -1 6 3500.15 720.627 1
5 -1 -6 2528.29 598.286 3
5 1 -6 3253.79 680.426 3
-5 1 6 2656.5 579.135 1
1 5 -6 3369.66 588.708 7
-1 -5 -6 3356.4 630.476 9
5 -1 -7 8329.59 1052.8 3
5 1 -7 6893.95 942.257 3
1 5 7 7537.04 974.032 1
-1 5 -7 8166.48 959.547 7
1 5 7 8693.59 1170.71 8
-1 -5 -7 7447.1 933.87 9
-1 5 7 7232.62 1076.03 8
1 -5 -7 7664.76 864.304 3
-1 5 7 8216.68 1035.79 1
1 5 -7 7134.58 863.686 7
-5 1 7 8633.06 1066.63 1
-5 -1 7 7777.78 1019.22 1
-1 -5 7 7635.19 831.868 1
5 1 -8 4883.24 893.061 3
1 5 8 5975.27 972.193 1
-5 -1 8 4865.1 896.691 1
-1 5 8 3655.54 876.35 8
-5 1 8 5192.23 924.746 1
1 -5 -8 5145.24 833.341 9
1 5 8 3805.03 909.8 8
-1 5 8 4302.6 831.819 1
-1 -5 -8 4445.01 759.337 9
-1 5 -8 4028.03 706.826 7
-5 1 -8 4059.23 830.13 7
5 -1 -8 4881.96 886.034 3
5 -1 -9 2480.84 690.387 3
-5 1 -9 1870.84 630.204 7
1 5 9 1430.93 765.841 8
1 -5 9 2396.19 590.833 5
-5 1 9 2334.84 496.023 4
-1 5 9 2201.72 789.775 8
-1 5 9 2286.98 688.139 1
5 -1 9 1849.72 446.628 5
5 1 -9 2308.25 620.844 3
1 -5 9 1918.98 470.331 4
-5 -1 9 2105.22 476.1 4
-5 -1 9 2364.29 766.498 1
-1 -5 9 2294 538.943 5
-5 1 9 2245.68 685.142 1
-1 -5 9 2136.6 496.097 4
1 5 9 2796.29 743.902 1
1 5 9 2063.94 448.732 4
5 1 9 2242.11 520.469 5
-1 5 9 2485.46 540.999 4
-1 5 10 414.673 519.807 1
-5 1 10 407.085 383.243 1
-5 1 10 80.1287 224.278 4
5 1 10 184.734 237.554 5
5 1 -10 -746.913 624.807 3
-5 -1 10 -461.595 550.861 1
5 -1 -10 -202.216 359.521 3
1 5 10 -511.436 422.927 1
1 5 -10 89.0552 304.091 3
5 -1 10 -23.8606 239.454 5
-1 -5 10 -90.1376 243.315 5
-1 5 10 -170.802 265.868 4
-5 -1 10 -177.219 254.049 4
-1 -5 10 -28.7818 213.267 4
1 -5 10 -74.8427 223.568 4
1 -5 10 -77.4299 227.979 5
1 5 10 168.01 295.361 4
-5 -1 11 543.899 297.897 4
5 1 11 222.566 339.527 5
-5 1 11 -134.932 470.435 1
-1 5 11 203.078 258.431 4
5 -1 11 885.674 410.359 5
1 -5 11 452.008 318.989 4
1 -5 11 387.619 322.671 5
-1 5 11 868.033 526.513 1
-5 -1 11 -124.078 281.87 1
5 -1 11 480.52 274.449 4
-1 -5 11 424.505 237.657 5
1 5 11 108.937 204.833 4
-1 -5 11 539.32 288.879 4
5 1 -11 360.858 363.209 3
-5 1 11 165.465 219.202 4
-1 5 12 534.905 334.954 4
-5 -1 12 504.301 279.94 4
5 -1 12 756.696 350.425 4
-1 -5 12 428.733 324.55 4
1 5 12 61.4215 313.712 4
5 1 12 803.678 397.841 5
-5 1 12 660.036 342.473 4
5 -1 12 537.712 327.179 5
1 -5 12 1138.84 419.991 4
-1 -5 12 576.347 331.876 5
1 -5 12 597.166 344.469 5
-5 1 13 -314.4 237.145 4
1 -5 13 336.685 279.843 4
-1 5 13 -158.083 200.094 4
-5 -1 13 595.602 311.934 4
5 -1 13 257.1 241.866 5
5 1 13 -130.78 269.862 5
-1 -5 13 -45.037 236.824 4
-1 -5 13 -541.097 329.45 5
1 5 13 -2.25529 216.789 4
1 -5 13 75.4039 283.184 5
-5 1 14 301.531 234.662 4
5 1 14 268.453 231.485 5
1 -5 14 312.232 240.414 5
-5 -1 14 52.3877 257.085 4
1 5 14 -225.397 187.002 4
-1 -5 14 26.6874 224.255 5
-1 5 14 -336.792 312.891 4
5 -1 14 -259.711 229.009 5
1 -5 14 306.096 213.506 4
-1 -5 14 -142.603 251.355 4
-1 -5 15 -231.472 226.96 4
1 -5 15 469.834 259.826 5
-5 -1 15 242.95 213.646 4
-1 5 15 -202.581 178.447 4
-5 1 15 -6.21572 174.902 4
5 -1 15 329.922 192.331 5
-5 1 16 2.40073 149.599 4
-5 -1 16 181.487 153.569 4
-5 -2 0 138.279 222.68 9
-2 -5 0 161.41 220.725 9
2 5 0 175.596 114.193 2
2 -5 0 -35.8184 223.814 3
-2 5 0 60.7557 119.031 1
-2 5 0 -142.774 194.466 7
5 2 0 -2.73091 169.817 3
5 2 0 64.7124 83.3987 8
2 -5 0 4.56072 92.6988 2
5 -2 0 350.271 252.685 3
2 5 0 -37.4763 251.812 7
-5 2 0 -78.6684 141.515 1
-2 -5 1 90054.9 2031.08 9
-2 5 -1 88645.1 2217.14 7
2 5 1 86261.3 1392.41 2
-5 -2 -1 89188.1 2119.6 9
-2 -5 -1 89982.9 2127.5 9
-5 2 1 90994.2 1538.04 8
-2 5 1 94965.7 2182.26 7
-5 -2 1 87514.3 2128.34 9
5 -2 -1 92127.8 2260.38 3
2 -5 1 86887.3 1477.77 2
5 2 -1 87481.1 2032.62 3
2 -5 1 93192.1 2318.95 3
5 -2 1 90114.5 2230.7 2
-2 5 1 87246.4 1801.41 1
2 5 1 86464.6 2195.3 7
5 2 1 82965.8 1467.98 8
5 -2 1 91207.4 2116.79 3
5 2 1 93197.8 2254.74 2
-5 2 1 90925.9 1986.76 1
2 5 -1 90921.4 2226.32 7
5 2 1 90713.9 1612.22 3
2 -5 -1 91218.4 2223.14 3
2 5 2 54391.1 1800.11 7
-5 -2 -2 54966.8 1715.58 9
2 5 2 56972.3 1913.1 8
-5 2 2 56275.3 1331.72 7
2 5 -2 55638.9 1778.72 7
-5 -2 2 54897.1 1767.31 1
5 -2 -2 55004.9 1866.05 3
-5 -2 2 54472.6 1749.1 9
-2 -5 2 55026.9 1564.63 9
5 -2 2 55444.7 1667.21 3
5 2 -2 56572.6 1808.05 3
5 2 2 51834.7 1426.28 8
-2 5 2 59677.6 1686.47 7
-2 5 2 54971.2 1831.17 8
-2 5 2 53196.7 1592.74 1
2 -5 -2 53598.7 1763.87 3
-5 2 2 54009 1714.08 1
-2 5 -2 53041.9 1790.73 7
5 2 2 57405.1 1841.62 2
-2 -5 -2 53597.6 1738.58 9
5 -2 2 54878.4 1815.15 2
-5 2 2 53812.8 1439.84 8
2 -5 3 53086.8 981.286 9
5 2 -3 62869.1 2072.57 3
-5 -2 -3 61599.4 1860.66 9
5 -2 3 63969.4 2105.01 2
5 -2 -3 63308.9 2130.95 3
-2 5 3 63041.1 2090.41 8
2 -5 -3 61858.3 1952.64 3
5 2 3 59709.8 1822.7 8
-2 -5 -3 61143.8 1972.6 9
-2 5 -3 60534.6 2037.16 7
2 5 3 61924.8 2129.26 8
-5 -2 3 60692.5 1967.65 9
5 2 3 65424 2078.02 2
-2 5 3 62318.4 1674.41 7
-2 -5 3 61680.1 1735.2 1
2 5 -3 60278.5 1931.46 7
-5 2 3 61346 1991.29 1
-2 5 3 57206.1 1849.96 1
-5 2 3 58623 1769.02 8
-2 -5 3 57271.8 1603.55 9
-5 -2 3 62314 2026.47 1
2 -5 -4 81517.7 2387.2 3
5 2 4 83563.5 2588.31 2
-2 5 4 80232.5 2414.65 1
-5 -2 -4 81204.6 2236.7 9
2 5 -4 78642.6 2335.87 7
5 2 4 79225.8 2381.66 8
-5 -2 4 81572.8 2493.06 1
5 2 -4 77704.3 2514.81 3
-2 -5 4 84404.2 2219.02 1
-2 5 4 80218.3 2645.5 8
-2 -5 4 77963 1871.9 9
2 5 4 77641.7 2375.89 1
-5 2 4 78178 2398.75 8
-2 5 -4 76898 2475.33 7
5 -2 -4 80803.5 2587.86 3
5 -2 4 88262.1 2688.93 2
-2 -5 -4 80067.1 2367.23 9
-5 2 4 79960.4 2466.67 1
2 5 4 77655.3 2626.9 8
-2 -5 -5 70418.3 2433.73 9
-5 -2 5 71748.2 2579.66 1
-5 2 5 73587 2563.84 1
-2 5 -5 67412.6 2456.94 7
-2 -5 5 71903.2 2278.39 1
2 -5 -5 71419.6 2384.63 3
2 5 5 66575.8 2650.57 8
-5 2 5 67832.7 2507.76 8
-2 5 5 68826.8 2639.09 8
5 2 5 68672.8 2534.53 8
-5 -2 -5 73463.5 2230.64 9
2 5 5 67680.4 2409.44 1
5 2 -5 73019.7 2601.3 3
5 -2 -5 71160.3 2654.56 3
2 5 -5 68987.9 2289.84 7
-2 5 5 68495.5 2444.68 1
2 5 6 9504.88 1121.57 8
-5 2 6 8994.11 980.492 1
2 5 6 10557.7 1046.98 1
2 -5 -6 9361.98 948.347 3
-5 -2 -6 10035.1 866.489 9
-5 -2 6 9970.79 1067.37 1
-2 5 6 9705.97 1015.67 1
5 2 6 7758.65 1049.97 8
-2 -5 6 10866.4 979.445 1
5 -2 -6 10594.9 1121.69 3
-5 2 6 7570.24 1014.64 8
-2 5 6 8953.19 1107.03 8
-2 -5 -6 8810.75 920.038 9
2 5 -6 8702.13 856.28 7
-2 5 -6 9244.71 981.516 7
5 2 -6 9716.35 1063.66 3
-2 5 7 -203.553 371.47 8
-2 -5 7 74.8447 213.928 1
2 5 7 612.363 420.454 8
5 2 -7 246.386 273.836 3
5 -2 -7 -203.131 285.552 3
-2 5 7 -142.274 284.187 1
2 5 -7 55.4731 236.812 7
-5 2 -7 -503.282 516.484 7
-2 5 -7 401.176 317.957 7
2 5 7 80.4411 257.322 1
2 -5 -7 -327.739 328.68 3
-2 -5 -7 -153.671 278.555 9
-5 2 7 -110.746 248.565 1
-5 -2 7 -31.799 321.231 1
-2 5 8 699.238 498.231 8
2 5 8 1572.68 661.521 8
2 5 8 1217.24 468.988 1
-5 -2 8 1354.66 502.166 1
-2 -5 -8 871.85 338.033 9
-2 5 8 1299.29 479.159 1
-2 -5 8 1910.07 505.109 1
-5 2 8 1191.43 512.615 1
-2 5 -8 933.906 411.183 7
5 -2 -8 1088.49 390.349 3
5 2 -8 1104.64 537.221 3
-5 2 -8 967.204 430.684 7
-5 -2 9 10286.4 971.02 4
-2 5 9 11633.6 1061.15 4
-5 2 9 11765.3 1057.21 4
-2 -5 9 11468.4 1041.13 4
2 -5 9 12248.6 1192.91 5
5 -2 -9 9633.05 1332.7 3
-2 5 9 10745.5 1405.89 1
-2 -5 9 11474.9 1119.82 5
-5 2 -9 9892.89 1315.19 7
2 5 9 10683.7 1612.47 8
2 -5 -9 9607.9 1227.42 9
-2 5 9 9045.78 1514.03 8
5 -2 9 10156 1053.38 5
-5 -2 9 13007.7 1506.09 1
5 2 -9 10723.4 1377.02 3
2 -5 9 12120.4 1091.99 4
-5 2 9 10254.7 1359.38 1
5 2 9 12161 1136.63 5
2 5 9 10537.7 1324.02 1
5 -2 10 8981.93 1040.35 5
-5 -2 10 7335.19 1213.11 1
-2 5 10 9714.07 1459.4 1
2 5 -10 9178.07 1332.27 3
5 2 10 9050.05 1023.53 5
2 -5 10 8762.8 1059.12 5
2 -5 10 9857.77 1014.64 4
5 -2 10 7419.35 860.091 4
5 2 -10 7581.86 1259.8 3
-5 2 10 8067.15 1354.29 1
-2 -5 10 9095.54 1088.46 5
-5 -2 10 9533.67 981.347 4
-5 2 10 7649.95 905.762 4
-2 5 10 8716.64 981.221 4
-2 -5 10 9822.3 994.828 4
2 5 10 6469.59 788.357 4
5 -2 -10 7817.02 1237.11 3
-2 -5 11 2258.71 562.26 5
5 -2 11 2160.22 550.336 5
2 -5 11 2053.9 509.01 4
5 2 11 2332.84 574.852 5
2 -5 11 1683.89 479.081 5
2 5 11 1116.5 355.55 4
5 2 -11 968.436 415.911 3
2 5 -11 864.852 515.414 3
-2 -5 11 2161.49 509.244 4
-5 2 11 1822.35 642.558 1
-5 -2 11 1805.88 468.441 4
5 -2 11 1818.84 435.302 4
-5 2 11 1603.96 428.468 4
-2 5 11 2618.98 578.486 4
-5 -2 12 1627.37 445.919 4
-2 -5 12 1592.12 501.726 5
-5 2 12 2058.48 524.803 4
2 -5 12 1529.79 456.23 5
5 -2 12 987.899 350.073 4
5 2 12 2878.38 660.038 5
2 5 12 1942.8 475.251 4
5 -2 12 1809.36 511.184 5
2 -5 12 1886.05 476.721 4
-2 -5 12 1324.5 431.616 4
-2 5 12 1426.67 458.06 4
-2 5 13 449.672 292.796 4
2 5 13 232.799 226.235 4
5 2 13 514.721 323.711 5
-2 -5 13 374.048 289.002 5
2 -5 13 120.784 206.73 4
-5 2 13 739.192 356.215 4
5 -2 13 116.621 216.236 5
5 -2 13 68.839 238.239 4
-5 -2 13 364.433 282.787 4
2 -5 13 337.249 299.956 5
-2 -5 13 195.085 236.585 4
2 -5 14 -365.804 289.546 4
-2 -5 14 -50.7278 199.321 4
-5 -2 14 39.1847 182.878 4
5 -2 14 -199.361 239.261 5
2 -5 14 124.208 273.517 5
-2 5 14 -116.682 240.599 4
5 2 14 171.703 220.453 5
-5 -2 15 32.8141 204.464 4
2 -5 15 222.528 188.487 5
-5 2 15 428.975 236.44 4
-2 5 15 505.567 248.04 4
-2 -5 15 752.996 257.093 4
5 -2 15 197.009 200.013 5
-5 -2 16 206.466 157.107 4
-5 2 16 51.3851 124.584 4
5 -3 0 59610 1837.57 3
3 -5 0 60051.5 1389.98 2
-5 -3 0 61528.1 1821.72 9
5 3 0 58465.3 1516.37 3
3 5 0 60173.2 1391.4 2
-5 3 0 59642.4 1456.61 1
3 5 0 59169.3 1838.34 7
-3 5 0 57995.8 1239.2 1
3 -5 0 60484 1886.45 3
-3 -5 0 60929.7 1779.87 9
-3 5 0 59950.5 1821.83 7
5 -3 1 70682.3 2062.5 3
3 5 -1 74617.7 2074.29 7
-3 -5 1 80085.1 2002.9 9
3 -5 -1 74824.1 2164.47 3
-5 3 1 77283.5 1897.74 1
5 -3 1 73936.4 2078.18 2
5 -3 -1 77755.1 2191.04 3
-5 3 -1 67986.8 1385.52 1
3 5 1 74696.3 2109.65 7
5 3 1 75857.9 1467.76 3
-5 3 1 73555.6 1891.5 7
3 -5 1 78851.4 2244.72 3
-3 -5 -1 75825.5 2072.76 9
-5 3 1 72942.1 1665.46 8
3 5 1 71455 1531.52 2
5 3 1 69770.2 1607.99 8
-3 5 1 79451.5 2056.49 7
-3 5 -1 69753.9 2077.7 7
5 3 1 79303.3 2105.18 2
-5 -3 -1 79842.6 2087.06 9
-3 5 1 73668.1 1697.76 1
3 -5 1 68078.1 1567.97 2
-5 -3 1 77350.3 2059.18 9
-3 -5 -2 5927.76 635.589 9
3 5 2 6083.24 673.258 8
5 -3 2 6398.96 644.345 2
-3 -5 2 6631.58 632.347 9
3 5 2 5632.42 504.94 2
-3 5 2 5794.2 562.159 1
-3 5 2 5518.6 545.985 7
-5 3 -2 5372.5 353.936 1
-5 -3 2 6087.61 630.543 9
3 5 -2 6379.52 656.016 7
-5 -3 -2 6663.27 667.151 9
-5 3 2 6195.85 618.005 1
-5 3 2 5926.55 554.306 8
-3 5 2 6070.68 643.806 8
3 -5 2 5751.15 525.421 2
5 3 -2 6280.75 588.914 7
5 -3 2 5579.64 588.039 3
-5 -3 2 7262.69 695.822 1
-3 5 -2 5469.37 625.915 7
5 3 2 5678.81 645.215 2
5 -3 -2 5250.6 621.723 3
-5 3 2 5248.67 442.11 7
3 -5 -2 6504.72 674.377 3
3 5 2 6644.83 705.794 7
5 3 2 6113.26 553.222 8
-5 3 3 6111.3 362.021 7
-3 5 -3 7322.56 789.864 7
-3 -5 -3 7698.17 725.851 9
-3 5 3 8119.6 803.379 8
5 -3 -3 9416.89 882.064 3
-3 5 3 7957.33 604.908 7
-5 -3 3 8184.88 744.492 9
3 -5 -3 8128.06 782.126 3
5 -3 3 7789.05 797.113 2
-3 -5 3 7494.76 683.632 1
-3 5 3 8367.76 748.263 1
3 5 3 7975.39 806.592 8
-5 -3 3 7662.51 781.404 1
-5 3 3 8133.05 769.194 1
5 3 -3 6965.76 623.302 7
5 3 3 7471.87 683.2 8
3 5 -3 7914.56 742.224 7
-3 -5 3 6937.23 619.741 9
-5 3 3 8340.97 722.875 8
3 -5 3 6375.6 370.1 9
5 3 3 8238.91 759.88 2
-5 -3 -3 7369.15 726.723 9
5 -3 4 5846.32 781.87 2
-3 5 4 5836.45 682.49 1
5 3 -4 5135.86 534.811 7
-5 -3 -4 5398.12 630.323 9
-5 -3 4 6210 716.927 1
-5 -3 4 5558.57 675.766 9
-3 5 4 6207.79 765.204 8
-3 -5 4 5492.11 626.928 1
-3 5 -4 5159.73 688.465 7
-3 -5 -4 5098.92 633.732 9
5 3 4 5175.1 680.003 2
-5 3 4 6254.71 722.682 1
5 3 4 5830.09 690.904 8
3 5 -4 6427.16 696.164 7
-3 -5 4 5317.09 565.497 9
-5 3 4 6256.76 706.078 8
3 -5 -4 6072.38 727.534 3
3 5 4 5154.91 718.903 8
5 -3 -4 7194.29 814.519 3
3 5 5 520.377 342.843 8
-3 5 -5 184.308 290.608 7
-5 -3 -5 303.39 244.647 9
-3 -5 5 231.45 271.24 1
-3 -5 -5 274.885 252.014 9
-5 3 5 410.754 304.034 8
-3 5 5 436.631 308.163 1
3 5 -5 504.567 319.027 7
-3 5 5 1066.37 450.91 8
-5 -3 5 896.449 417.846 1
3 -5 -5 770.909 380.618 3
5 3 5 931.552 414.01 8
5 -3 -5 419.573 288.359 3
5 3 -5 404.198 216.208 7
-5 3 5 149.494 256.854 1
5 3 -6 9682.73 1093.29 3
-5 3 6 8824.12 991.897 1
-3 -5 -6 8337.6 919.039 9
-5 -3 6 9809.12 1070.16 1
-3 -5 6 7472.68 840.807 1
5 3 6 8636.7 1064.55 8
3 -5 -6 8559.5 982.7 3
5 -3 -6 9096.96 1042 3
-3 5 6 7691.3 941.99 1
-5 3 -6 8470.96 1059.18 7
-5 3 6 7686.96 973.978 8
-3 5 -6 7299.87 919.773 7
3 5 -6 8294.56 849.185 7
3 5 6 8682.73 1116.23 8
-3 5 6 7257.75 994.472 8
-5 -3 -6 8419.29 872.319 9
-3 5 7 18630.1 1534.48 1
-3 -5 -7 18312.6 1420.03 9
-5 3 -7 22282.4 1810.25 7
3 -5 -7 18088.2 1464.33 3
-5 3 7 18560.9 1574.16 1
-5 -3 7 20516.5 1649.79 1
5 -3 -7 19964.9 1654.87 3
5 3 7 18477.5 1685.05 8
3 5 7 20156.5 1736.54 8
5 3 -7 20463.4 1682.03 3
-5 3 7 16701 1534.2 8
-3 5 7 18929.1 1664.95 8
-3 5 -7 17418.7 1492.23 7
-3 -5 7 18365.1 1438.56 1
5 -3 -8 13377.1 1477.74 3
-3 5 8 12390.3 1419.1 1
3 -5 -8 12187.8 1252.69 3
-3 -5 -8 12372 1248.51 9
3 5 8 11861.9 1560.89 8
-5 -3 8 13849.2 1501.31 1
-5 3 8 14346.2 1472.92 1
-5 3 -8 13028.1 1457.52 7
-3 5 -8 12205.7 1349.93 7
-3 -5 8 12355.6 1273.68 1
-3 5 8 9831.23 1428.88 8
5 3 -8 12467.8 1404.9 3
-3 5 9 1079.01 615.007 8
5 -3 9 1508.88 359.726 4
3 5 9 1198.33 665.24 8
-5 3 9 1679.68 445.381 4
-3 -5 9 1971.95 466.89 4
-3 5 9 1920.33 458.95 4
-5 -3 9 2767.94 797.446 1
5 -3 -9 1768.92 600.163 3
5 3 9 2466.09 572.449 5
3 5 -9 1918.66 641.933 3
-3 5 9 1343.5 596.262 1
-5 -3 9 1522.43 434.739 4
-5 3 -9 1837.67 642.095 7
-5 3 9 1916.87 611.377 1
5 -3 9 1427.53 423.217 5
5 3 -9 592.248 380.691 3
3 -5 9 1463.16 469.437 5
-3 -5 9 1790.53 468 5
-3 5 -9 1128.42 491.85 7
3 -5 9 1538.02 434.023 4
3 5 9 873.11 343.131 5
-3 -5 10 -13.1774 211.302 4
3 -5 10 -343.141 285.18 4
-3 5 10 103.061 216.279 4
5 3 10 -55.8596 247.276 5
-5 3 10 -162.804 308.549 4
5 -3 -10 -34.0686 391.335 3
5 -3 10 -177.247 188.004 4
5 3 -10 110.88 338.669 3
5 -3 10 125.103 256.402 5
3 5 -10 -109.413 421.713 3
3 5 10 233.428 257.48 5
-5 -3 10 -336.856 295.425 4
-3 -5 10 -122.506 290.34 5
-5 3 10 -332.701 452.402 1
-3 5 10 104.21 362.36 1
3 -5 10 -10.8576 250.85 5
-5 -3 10 -61.6174 386.385 1
-5 3 11 612.445 353.124 4
5 -3 11 24.6712 189.39 4
5 -3 11 89.7283 255.193 5
-3 5 11 478.328 323.439 4
5 3 11 469.326 288.213 5
-3 -5 11 30.9717 238.446 5
-3 -5 11 498.784 311.493 4
3 -5 11 451.211 333.497 5
3 -5 11 642.6 321.115 4
-5 -3 11 129.911 207.76 4
-5 -3 12 523.599 308.795 4
-3 5 12 841.717 396.944 4
5 -3 12 173.077 227.8 4
3 -5 12 224.843 216.595 4
5 3 12 645.615 318.895 5
-3 -5 12 511.809 353.576 5
5 -3 12 411.381 351.294 5
3 -5 12 -168.544 263.559 5
-5 3 12 609.378 297.742 4
-3 -5 12 749.255 392.238 4
-5 -3 13 90.9035 205.345 4
5 3 13 516.824 300.039 5
-3 5 13 464.806 272.438 4
5 -3 13 338.677 224.667 4
3 -5 13 755.012 353.484 5
3 -5 13 144.973 244.128 4
-3 -5 13 278.407 208.971 4
5 -3 13 443.516 330.105 5
-5 3 13 118.683 244.696 4
-5 3 14 155.637 188.921 4
-3 5 14 277.102 216.019 4
3 -5 14 803.637 336.668 5
5 -3 14 129.982 206.302 5
3 -5 14 298.052 207.521 4
-3 -5 14 801.278 310.804 4
-5 -3 14 632.205 318.011 4
-5 3 15 109.435 176.964 4
5 -3 15 131.114 225.928 5
-3 -5 15 -56.9979 174.304 4
-5 -3 15 413.045 232.09 4
-3 5 15 322.162 227.644 4
3 -5 15 279.79 230.389 5
-5 -3 16 -129.31 143.8 4
-5 3 16 432.942 174.022 4
-5 -4 0 210.339 232.56 9
4 -5 0 -37.2231 268.697 3
-4 5 0 152.648 268.222 7
-4 -5 0 17.5483 243.187 9
-5 4 0 74.8408 149.245 1
-4 5 0 -131.012 146.411 1
4 5 0 -402.259 283.713 7
-5 4 0 -110.055 238.8 7
5 -4 0 -186.333 284.797 3
5 4 -1 815.748 303.384 7
4 5 -1 775.981 317.472 7
4 -5 -1 884.192 338.24 3
-4 -5 1 1048.07 351.633 9
4 -5 1 727.965 288.65 3
5 4 1 907.04 268.209 2
5 4 1 912.403 271.928 8
4 5 1 557.159 181.766 2
-5 4 -1 775.281 363.389 7
-5 4 1 677.939 238.757 8
5 -4 1 861.604 291.154 3
-4 -5 -1 570.61 245.428 9
-5 -4 -1 897.854 301.324 9
4 5 1 789.871 296.342 8
-5 4 1 975.165 275.63 1
-4 5 1 1040.51 243.653 1
-4 5 1 1108.42 307.198 7
-5 -4 1 580.126 246.212 9
-4 5 -1 474.912 82.8851 1
5 4 1 702.777 172.918 3
5 -4 1 860.012 289.975 2
-5 4 -1 849.191 158.722 1
-4 5 -1 858.414 304.312 7
-5 4 1 765.686 244.457 7
4 -5 1 660.348 223.351 2
5 -4 -1 549.942 308.915 3
4 5 1 731.062 309.182 7
-4 5 -2 9625.13 854.432 7
5 -4 2 9180.5 753.472 2
-5 4 2 8916.46 759.839 1
4 -5 2 9718.21 737.253 2
-5 -4 -2 9627.12 816.447 9
-4 5 2 10524.3 839.771 8
-5 -4 2 9669.47 810.482 9
5 4 2 9417.12 765.908 2
-4 5 2 9980.76 728.76 7
-4 -5 -2 9480.23 827.128 9
5 -4 2 9625.24 848.026 3
-5 4 2 9128.1 724.957 8
4 -5 2 9439.16 848.676 3
4 5 -2 9819.17 811.244 7
5 4 -2 8813.5 774.514 7
-5 4 2 9920.91 665.309 7
5 4 2 9637.97 747.392 8
-5 4 -2 11799.7 989.705 7
5 -4 -2 9491.49 829.09 3
4 5 2 10013.3 851.946 8
4 -5 -2 10045 841.787 3
-4 5 2 9577.32 745.726 1
-4 -5 2 9895.85 780.666 9
4 5 2 10089.8 744.543 2
-5 4 -3 51701.7 2134 7
-4 -5 3 47302.6 1730.24 9
-5 -4 -3 46161.8 1803.13 9
5 4 -3 46691.4 1706.1 7
5 -4 3 48092.7 1867.63 2
-5 -4 3 47308.1 1797.8 9
-5 -4 3 45681.4 1820.67 1
4 -5 3 46194.5 1737.1 2
5 4 3 46560.7 1818.52 2
4 5 3 49498.2 1941.27 8
-4 -5 -3 46094 1835.75 9
4 5 3 45462.4 1654.22 2
-4 5 3 46420.7 1867.11 8
-5 4 3 45075.4 1739 8
5 -4 -3 47671.1 1958.87 3
-4 5 3 46794.3 1789.81 1
4 -5 -3 44998.1 1888.45 3
5 4 3 47775 1804.3 8
4 5 -3 45715.3 1774.79 7
-5 4 3 44289.1 1180.4 7
-5 4 3 46634.1 1819.87 1
-4 5 -3 45843.7 1961.54 7
-4 5 3 48664.1 1458.27 7
-4 -5 3 45390 1772.27 1
-4 5 4 51644 2048.07 1
-4 5 4 47977.8 2076.81 8
-4 -5 -4 51994.9 2038.27 9
4 -5 -4 49389.4 2114.73 3
-5 -4 -4 50674.8 1979.57 9
-5 4 -4 57295.2 2414.74 7
-5 -4 4 52105.5 1956.38 9
5 -4 -4 53061 2213.64 3
-5 -4 4 53646.6 2093.49 1
5 -4 4 54440.8 2145.38 2
4 5 -4 49080.5 1904.91 7
-4 -5 4 50820.8 1841.51 9
-5 4 4 53354.5 2086.94 1
5 4 4 50847.9 2059.58 8
-4 -5 4 51799.2 2017.15 1
5 4 -4 48651.8 1788.34 7
-4 5 -4 51713.9 2239.47 7
-5 4 4 52192.2 2045.02 8
4 5 4 47502.6 2125.38 8
-5 4 5 29129.3 1689.05 1
-4 -5 -5 29268.2 1624.12 9
4 -5 -5 30945.1 1759.49 3
-5 4 5 29314.8 1695.25 8
5 4 5 28265.1 1734.45 8
-5 -4 5 32585.8 1758.69 1
5 4 -5 28000.2 1369.78 7
-5 -4 -5 29784.9 1606.9 9
-4 5 5 30132.9 1683.6 1
5 -4 -5 31053.8 1819.91 3
-4 5 -5 31600.4 1860.29 7
-4 -5 5 30278.1 1669.72 1
4 5 5 29615.5 1786.46 8
-5 4 -5 32846.5 1969.43 7
-4 5 5 29469.1 1756.05 8
4 5 -5 30360.7 1557.61 7
-5 4 6 1642.28 527.737 8
5 4 6 1207.45 445.151 8
-5 4 6 1681.94 504.772 1
-5 -4 -6 1457.5 523.293 9
-4 5 -6 737.611 390.155 7
-4 -5 6 1125.03 362.831 1
-4 5 6 1184.78 466.599 8
4 -5 -6 1681.33 512.641 3
-4 5 6 1723.9 460.936 1
4 5 6 483.282 302.313 8
4 5 -6 589.305 267.919 7
-5 -4 6 1416.81 467.671 1
-4 -5 -6 1257.11 372.919 9
5 -4 -6 1547.44 476.523 3
-5 4 -6 1927.69 605.219 7
-4 5 -7 -41.7702 276.266 7
-5 4 -7 228.319 385.882 7
-4 -5 7 -204.123 262.264 1
4 5 7 37.7443 328.75 8
5 4 -7 134.656 302.976 3
-4 -5 -7 -284.842 362.166 9
5 4 7 -320.161 369.602 8
5 -4 -7 110.5 254.735 3
-5 -4 -7 -73.9635 204.181 9
-5 4 7 -122.108 286.644 8
-5 -4 7 658.468 371.036 1
4 -5 -7 -183.694 260.806 3
-4 5 7 -187.893 344.223 8
-4 5 7 1.06725 251.785 1
-5 4 7 408.943 359.354 1
-5 4 8 439.573 384.036 8
5 4 -8 1935.44 628.683 3
5 4 8 467.907 377.655 8
-4 -5 8 1729.03 616.646 1
-4 5 8 1630.03 567.603 1
-4 5 8 758.799 438.296 8
-5 -4 8 1332.52 499.426 1
-4 5 -8 1433.82 525.483 7
-5 4 8 1730.32 545.419 1
-5 4 -8 1389.97 500.994 7
5 -4 8 2228.87 497.315 5
5 -4 -8 1082.82 449.409 3
4 -5 -8 1443.25 437.653 3
4 5 8 775.311 479.325 8
4 -5 8 1086.43 351.54 5
-5 4 9 1537.74 445.114 4
5 -4 9 1740.14 458.188 4
-4 5 -9 1090.75 565.066 7
-5 -4 9 1684.04 689.223 1
-4 5 9 1348.82 387.502 4
-4 -5 9 1555.49 450.792 5
-5 -4 9 714.185 274.365 4
-4 -5 9 1129.35 357.367 4
5 4 9 1622.33 447.433 5
-5 4 -9 689.616 466.608 7
-4 5 9 644.131 439.318 8
5 4 -9 881.119 504.572 3
-4 5 9 1505.69 602.017 1
5 -4 -9 703.262 452.856 3
4 -5 9 1446.97 449.944 5
5 -4 9 1807.69 491.436 5
4 -5 9 1684.31 451.103 4
4 5 9 859.102 364.927 5
4 5 9 1442.68 667.374 8
-5 4 9 1530.71 626.196 1
4 5 -9 1038.93 455.475 3
-5 -4 10 2451.4 529.769 4
4 5 10 2381.51 560.058 5
4 5 -10 1445.98 542.827 3
5 -4 10 2556.03 523.472 4
4 -5 10 2031.17 480.574 4
-5 4 10 2471.95 557.689 4
-5 4 10 995.169 578.963 1
5 -4 10 2536.54 607.656 5
-4 -5 10 1966.37 486.515 5
-4 -5 10 2176.29 512.472 4
5 4 10 2116.96 555.486 5
4 -5 10 2317.46 582.192 5
-4 5 10 2828.74 571.873 4
-4 5 10 2654.34 685.191 1
5 4 -10 2292.26 708.086 3
-4 -5 11 2625.83 562.944 4
-5 -4 11 2472.39 551.787 4
4 5 11 2206.97 586.606 5
4 -5 11 3161.58 655.223 5
-5 4 11 3755.03 683.873 4
5 4 11 2756.05 667.945 5
4 -5 11 3007.28 605.278 4
-4 5 11 2953.54 618.066 4
-4 -5 11 1731.91 492.807 5
5 -4 11 3217.03 593.579 4
5 -4 11 3149.53 677.761 5
-5 -4 12 -45.9367 273.247 4
5 -4 12 153.454 209.993 4
4 -5 12 468.585 314.088 4
4 -5 12 270.797 336.578 5
5 4 12 114.713 265.061 5
-5 4 12 290.002 238.652 4
-4 -5 12 227.647 272.573 4
-4 5 12 44.3687 216.754 4
5 -4 12 -141.076 267.69 5
4 5 12 53.1622 245.186 5
4 -5 13 -24.1145 225.761 5
-5 4 13 532.163 293.738 4
-4 5 13 85.7773 242.122 4
-4 -5 13 -171.633 206.413 4
5 -4 13 9.20878 262.124 5
-5 -4 13 60.6777 234.874 4
4 -5 13 464.478 281.478 4
5 -4 13 -17.8246 187.438 4
-4 5 14 58.3545 183.213 4
4 -5 14 525.947 274.502 5
-4 -5 14 272.483 222.173 4
5 -4 14 547.543 325.894 5
-5 -4 14 -131.084 224.351 4
-5 4 14 497.251 243.063 4
-5 4 15 43.2188 184.49 4
-4 5 15 -89.1113 180.675 4
4 -5 15 190.961 206.275 5
-5 -4 15 -203.993 207.353 4
-4 -5 15 268.891 189.708 4
5 -4 15 175.603 197.628 5
-5 4 16 102.767 134.387 4
-5 -4 16 -26.9019 118.745 4
5 5 0 8477.79 796.098 7
-5 -5 0 9712.36 812.231 9
-5 5 0 8041.31 558.686 1
5 -5 0 8490.6 807.819 3
-5 5 0 7319.74 711.316 7
-5 -5 -1 2888.33 479.976 9
-5 5 -1 1937.44 198.396 1
-5 5 1 2578.77 418.228 7
5 -5 1 3274.88 441.389 2
5 5 1 3267.65 488.967 8
-5 -5 1 3553.52 494.974 9
-5 5 -1 3179.14 524.621 7
5 -5 1 2839.04 475.431 3
-5 5 1 2377.54 354.325 1
5 5 -1 3840.19 536.455 7
5 -5 -1 3300.16 530.793 3
-5 5 1 1943.15 402.282 8
5 5 1 3663.86 506.434 2
5 -5 2 14906.7 1102.35 3
5 -5 -2 16891.3 1174.11 3
5 5 -2 13764.7 987.736 7
-5 5 2 15266 1025.19 8
5 -5 2 13343.2 923.542 2
5 5 2 14188.1 943.345 2
-5 -5 2 13053 943.361 9
-5 5 2 14544.3 903.474 7
-5 5 2 15012.8 987.292 1
-5 5 -2 15617.6 1159.48 7
5 5 2 14188.5 997.263 8
-5 -5 -2 14014.6 1005.27 9
-5 -5 3 29211.6 1516.88 9
-5 -5 -3 28008 1533.91 9
5 5 3 27453.3 1435.13 2
5 -5 3 26705.9 1455.02 2
-5 -5 3 30062.9 1545.17 1
-5 5 -3 27296.5 1629.85 7
5 -5 -3 28908.6 1590.64 3
5 5 -3 29010.1 1467.02 7
-5 5 3 28911.2 1478.23 1
5 5 3 27180.4 1529.3 8
-5 5 3 26153.9 1473.76 8
-5 5 3 25782.6 1070.21 7
5 5 4 561.364 341.249 8
-5 5 4 2537.02 619.816 1
-5 -5 4 724.958 363.98 9
-5 -5 -4 879.578 356.424 9
5 5 -4 260.592 189.184 7
5 -5 -4 4072.79 771.599 3
-5 5 4 4752.66 776.135 8
-5 -5 4 531.633 335.965 1
-5 5 -4 1562.52 623.251 7
-5 5 -5 11087.1 1192.58 7
-5 5 5 10810.8 1090.22 8
-5 -5 -5 11182.7 1134.74 9
5 5 -5 11551.7 1000.96 7
5 -5 -5 11879.6 1176.02 3
-5 -5 5 14244.8 1146.18 9
-5 5 5 10891.9 1085.68 1
-5 -5 5 13417.7 1244.8 1
5 5 5 12970.1 1263.45 8
-5 -5 -6 35325.9 1938.41 9
5 -5 -6 36614.9 2150.27 3
-5 -5 6 38503.3 2135.24 1
-5 5 6 35057 2128.62 8
5 5 6 32469.8 2195.93 8
-5 5 -6 35427.9 2235.15 7
-5 5 6 35169.1 2050.67 1
5 -5 -7 48457.6 2647.84 3
-5 5 7 46466.9 2702.59 8
-5 5 -7 51783.9 2834.59 7
5 5 7 50735.5 2825.86 8
-5 -5 -7 48167.9 2380.13 9
-5 5 7 50320.9 2647.57 1
-5 5 8 31629.1 2266.57 1
5 5 8 26614.3 1687.64 5
-5 -5 8 29904 2170.46 1
5 -5 8 27242.4 1680.82 5
5 -5 -8 27645.5 2113.71 3
-5 -5 8 26591.9 1522.04 4
-5 5 -8 27977.4 2183.16 7
-5 5 8 20998.1 2086.89 8
5 5 8 30061 2384.6 8
-5 5 8 29250.3 1629.27 4
5 5 -8 27312.6 2148.36 3
-5 5 9 8625.84 1426.86 8
5 -5 -9 7489.65 1170.64 3
-5 5 9 11702.9 1505.14 1
5 5 9 11261.7 1155.86 5
5 5 -9 10723.7 1425.6 3
-5 -5 9 10924.5 1411.61 1
-5 -5 9 8452.03 958.585 5
5 5 9 8936.43 1492.27 8
5 -5 9 10087.8 1071.46 5
-5 5 -9 7852.99 1238.68 7
5 -5 9 10543.4 1015.28 4
-5 5 9 10165.9 1028.22 4
-5 -5 9 11304.2 1058.53 4
-5 5 10 313.379 252.361 4
5 -5 10 419.811 328.733 5
5 5 -10 676.637 503.886 3
-5 5 10 227.976 374.76 1
5 -5 10 297.174 317.669 4
5 5 10 -68.7251 261.099 5
-5 -5 10 589.292 336.377 4
5 5 11 0.97386 272.185 5
-5 -5 11 160.314 264.744 4
-5 5 11 33.9152 213.173 4
5 -5 11 31.6742 289.155 5
5 -5 11 -57.6855 248.945 4
-5 -5 12 578.818 353.739 4
5 -5 12 555.322 368.618 4
5 -5 12 620.243 398.772 5
-5 5 12 832.88 386.204 4
-5 5 13 1897.22 453.829 4
5 -5 13 1587.71 459.414 5
-5 -5 13 1538.96 423.071 4
-5 5 14 424.774 242.221 4
5 -5 14 891.465 367.016 5
-5 -5 14 465.443 268.082 4
5 -5 15 172.129 184.298 5
-5 5 15 20.6661 150.703 4
0 6 0 14026.8 928.199 7
0 -6 0 14328 882.412 9
6 0 0 14737.3 890.622 3
-6 0 0 14933.3 950.203 9
6 0 1 98772.3 2523.21 2
0 -6 -1 99803.8 2337.76 3
-6 0 -1 106320 2415.53 9
6 0 1 95178.3 2076.88 3
0 6 1 104915 2532.69 7
-6 0 1 99942.6 2455.15 9
0 6 -1 98796.5 2466.21 7
-6 0 1 98161.2 2339.64 1
0 -6 -1 99760.4 2456.19 9
6 0 -1 97469.7 2399.97 3
0 -6 1 101590 2218.41 9
0 -6 -2 48101.7 1636.33 3
0 6 2 49962.1 1773.54 7
0 6 2 50651.3 1888.41 8
-6 0 2 46937.8 1730.41 1
6 0 2 44917.4 1351.02 3
-6 0 -2 47851 1633.21 9
0 6 2 46804.3 1609.54 1
6 0 -2 49604.5 1832.83 3
6 0 2 45507 1786.45 2
0 -6 2 45993.8 1459.51 9
0 6 -2 49005.3 1850.13 7
0 6 -3 60148.5 2129.69 7
0 6 3 58257.2 1982.75 7
6 0 -3 60078.5 2141.4 3
0 6 3 60128.9 2011.48 1
0 -6 -3 60372.2 1853.33 3
0 -6 3 55469.6 1452.72 9
0 6 3 59306 2189.34 8
-6 0 -3 56934.1 1790.35 9
-6 0 3 59199.9 2060.39 1
6 0 3 57751.5 2074.44 2
0 -6 3 55917.2 1377.52 1
0 6 4 3725.38 600.117 1
6 0 4 3126.26 537.48 2
0 6 -4 4100.39 644.262 7
0 -6 4 2798.7 281.549 9
0 -6 -4 3744 510.995 3
0 6 4 3662.01 630.068 8
-6 0 -4 4162.55 501.505 9
-6 0 4 3885.84 562.719 1
6 0 -4 4027.01 631.378 3
0 -6 4 3606.21 381.364 1
0 6 5 23160.5 1536.04 1
0 -6 -5 22350.5 1234.49 3
0 6 5 21536.7 1600.87 8
6 0 -5 23902.9 1571.83 3
-6 0 5 23178.9 1548.35 1
-6 0 -5 19257.3 1025.67 9
0 -6 5 18407.5 946.738 1
0 6 -5 22413.7 1456.96 7
-6 0 6 33.1561 327.625 1
6 0 -6 -112.158 293.634 3
0 6 6 -379.392 425.181 8
0 6 -6 43.898 239.618 7
0 6 6 -29.0459 246.609 1
0 -6 -6 -130.904 295.623 9
0 -6 -7 834.384 372.813 9
6 0 -7 1597.18 474.964 3
-6 0 7 797.873 382.806 1
0 6 -7 1223.99 428.68 7
0 6 7 1511.01 570.341 8
0 6 7 927.731 478.193 1
0 6 -8 242.679 287.953 7
0 -6 -8 111.623 224.705 9
6 0 -8 256.468 301.881 3
-6 0 8 -15.6846 388.003 1
0 6 8 -139.915 302.319 1
0 6 8 512.566 482.319 8
0 6 9 698.893 485.012 8
0 -6 9 1239.9 439.597 5
-6 0 -9 457.888 332.362 7
0 -6 -9 1662.84 502.836 9
0 6 9 1686.43 586.442 1
0 6 9 1419.82 432.41 4
6 0 -9 1351.2 576.843 3
6 0 9 1588.49 448.038 5
-6 0 9 786.193 568.478 1
0 -6 9 1096.46 369.658 4
-6 0 9 1151.41 322.545 4
0 6 10 1091.59 543.281 1
6 0 10 589.503 327.276 5
-6 0 10 529.074 277.584 4
0 6 10 857.238 643.838 8
0 -6 10 1126.47 448.555 5
0 -6 10 1078.46 378.188 4
0 6 10 608.606 289.031 4
-6 0 10 467.128 422.334 1
6 0 -10 341.89 530.397 3
-6 0 11 955.114 371.285 4
0 6 11 1111.81 454.427 4
0 -6 11 1523.5 468.716 5
0 -6 11 1146.49 395.583 4
6 0 11 964.978 400.994 5
-6 0 12 2184.01 520.784 4
0 6 12 2051.75 490.965 4
0 -6 12 2621.98 664.46 5
6 0 12 1859.32 530.029 5
0 -6 12 2689.28 573.038 4
0 6 13 469.794 271.628 4
0 -6 13 862.289 393.257 5
-6 0 13 518.918 286.611 4
6 0 13 242.921 285.126 5
0 -6 13 369.558 304.96 4
0 -6 14 202 251.687 5
6 0 14 108.235 250.649 5
0 -6 14 14.7197 215.66 4
0 6 14 82.6056 185.931 4
-6 0 14 922.245 316.141 4
6 0 15 498.956 278.277 5
0 -6 15 425.399 229.614 5
-6 0 15 -14.4901 166.032 4
-6 0 16 205.7 157.593 4
-6 1 0 -59.849 202.968 9
6 -1 0 174.959 185.16 3
-1 -6 0 77.2329 205.957 9
6 1 0 129.915 185.7 3
-6 1 0 -35.076 195.043 1
-6 -1 0 357.002 267.755 9
-1 6 0 102.466 215.124 7
1 -6 0 122.603 231.221 3
1 6 0 230.767 266.078 7
-1 -6 1 1873.22 344.58 9
6 -1 -1 1826.74 362.597 3
1 -6 -1 1729.21 380.201 3
6 1 -1 1838.08 361.269 3
-6 -1 -1 2012.34 388.335 9
1 6 1 1868.07 391.753 7
-1 6 1 1433.77 278.567 1
-6 -1 1 1580.16 353.263 9
-1 6 -1 1966.02 425.447 7
-6 1 1 1869.45 378.133 1
1 6 -1 1551.88 371.523 7
6 1 1 1648.88 392.914 2
-1 6 1 1751.9 356.505 7
6 -1 1 2152.53 463.195 2
6 1 1 2048.6 336.576 3
-1 -6 -1 1819.92 391.665 9
-6 1 -1 1772.89 370.221 9
6 -1 1 1941.37 345.789 3
1 -6 1 1775.43 304.891 9
-6 -1 2 -185.092 312.258 1
-1 -6 2 276.064 236.523 9
1 6 2 -32.0452 256.592 7
6 -1 -2 241.813 310.179 3
-6 -1 2 384.971 252.896 9
1 -6 2 483.594 223 9
-1 6 2 485.541 240.395 1
1 -6 -2 118.862 199.907 3
-6 -1 -2 179.132 198.748 9
-1 6 2 312.089 228.186 7
6 1 -2 274.773 226.195 3
6 -1 2 60.8472 241.898 2
6 1 2 257.296 231.234 2
1 6 2 -93.7957 256.879 8
-6 1 -2 368.734 203.771 9
-6 1 2 186.026 204.894 1
-1 -6 -2 86.0524 146.51 3
1 -6 2 194.977 80.0691 1
6 -1 2 183.234 178.991 3
-1 6 -2 338.286 273.627 7
1 6 -2 612.466 323.561 7
6 1 2 304.196 134.548 3
-1 -6 -2 278.844 266.988 9
-1 6 2 512.005 262.942 8
1 6 3 12989.9 1051.96 8
-1 -6 -3 13029.1 992.146 9
6 -1 -3 14096.2 1065.3 3
1 -6 3 12749.6 643.258 9
-6 1 -3 13439.3 836.83 9
6 -1 3 13608.6 1055.02 2
-1 6 3 13601.9 1030.84 8
-1 -6 -3 12291.6 769.214 3
1 6 3 12141.5 925.406 1
6 1 3 12649.1 822.122 8
6 1 3 12344.9 977.606 2
-1 6 3 14503.5 995.259 1
-1 6 3 13208.2 898.044 7
1 6 -3 12050.4 964.884 7
-1 -6 3 13082.4 774.73 9
-6 -1 -3 13926.1 916.947 9
6 1 -3 13306.6 1014.74 3
-1 6 -3 13245.8 1026.12 7
1 6 3 12866.4 958.338 7
1 -6 -3 14030.5 952.792 3
1 -6 3 8355.09 366.701 1
-6 1 3 12793.2 971.704 1
-6 -1 3 13805.5 1008.04 1
-1 -6 3 12664.1 769.628 1
-1 6 4 3274.43 597.768 8
-1 -6 4 2761.55 379.409 1
1 -6 -4 2783.97 467.546 3
-6 1 -4 2727.09 385.694 9
-1 6 4 2488.47 432.339 1
-6 1 4 2866.67 545.808 1
1 6 -4 3086.76 555.304 7
-6 -1 -4 2209.64 388.331 9
6 1 4 2532.44 501.604 2
-1 -6 -4 2153.91 355.272 3
6 1 -4 2157.09 496.131 3
6 -1 -4 2128.61 534.829 3
-1 6 -4 1870.4 447.392 7
-1 -6 -4 2542.51 513.247 9
6 -1 4 2857.37 540.822 2
1 6 4 3737.46 651.885 8
-1 -6 4 1938.96 294.533 9
1 6 4 2149.1 449.571 1
-6 -1 4 2371.87 498.268 1
-1 6 5 321.047 326.041 8
-1 6 -5 251.411 265.282 7
-1 -6 -5 0.87694 137.669 3
-6 -1 5 -169.089 255.423 1
-1 -6 -5 -197.391 238.018 9
1 6 5 -95.8978 359.89 8
-6 -1 -5 145.401 209.834 9
6 1 -5 16.3209 326.804 3
1 -6 -5 301.793 257.784 3
1 6 -5 81.4817 239.522 7
-1 -6 5 -10.0962 147.432 1
6 -1 -5 -249.608 325.68 3
-6 1 5 -91.9403 291.93 1
-1 6 5 431.351 261.416 1
1 6 5 338.524 312.754 1
-1 -6 -6 695.379 310.8 9
-1 -6 6 709.818 273.813 1
6 -1 -6 846.623 384.535 3
-6 -1 6 780.322 331.918 1
6 1 -6 578.956 298.292 3
-1 6 -6 299.243 309.321 7
1 -6 -6 868.47 355.016 3
1 6 6 395.072 276.799 1
-1 6 6 1215.84 462.739 1
-6 1 6 778.617 442.188 1
1 6 6 1287.5 464.608 8
-1 6 6 466.56 374.738 8
1 6 -6 1123.32 380.377 7
-1 6 7 1914.39 512 1
1 6 7 2292.89 582.087 1
-1 6 7 2109 606.237 8
6 -1 -7 1275.66 467.491 3
-6 1 7 2467.24 622.386 1
6 1 -7 2649.12 634.298 3
-1 -6 -7 1575.02 500.363 9
-1 6 -7 2106.26 507.058 7
-6 -1 7 1644.02 559.458 1
1 6 7 2800.43 729.927 8
1 6 -7 1615.28 487.823 7
-1 -6 -8 1409.84 507.687 9
1 -6 -8 544.349 429.509 9
-6 -1 8 649.651 419.101 1
1 6 8 525.684 485.866 8
-1 6 -8 289.358 277.322 7
1 6 8 364.367 351.481 1
6 -1 -8 855.395 450.991 3
6 1 -8 543.257 395.533 3
-6 1 8 969.832 490.777 1
-1 6 8 789.702 541.003 8
-1 6 8 -2.56088 310.685 1
-6 -1 9 352.304 429.957 1
1 -6 9 -466.145 355.855 5
1 6 9 -794.971 312.643 4
1 -6 9 -38.1086 281.648 4
-6 -1 9 -70.7393 231.952 4
-1 -6 9 -37.8826 241.268 5
-1 6 9 -770.281 600.576 8
-1 6 9 -10.3756 394.299 1
6 1 -9 -213.982 464.401 3
1 -6 -9 571.629 404.221 9
-6 1 9 -473.391 520.548 1
6 -1 9 12.9782 216.326 5
-6 1 -9 -35.6811 275.638 7
-1 -6 9 -86.9757 238.406 4
6 -1 -9 -263.486 419.021 3
-1 6 9 -149.68 267.315 4
1 6 9 -675.553 448.485 8
-6 1 9 151.067 204.192 4
1 6 9 -318.789 291.168 1
6 1 9 167.467 239.022 5
-1 -6 10 -98.865 285.544 4
-6 -1 10 -67.2976 217.778 4
-1 6 10 -29.3996 264.203 4
1 6 10 389.756 270.031 4
6 -1 -10 -202.465 286.989 3
1 -6 10 206.041 274.456 4
1 6 10 -110.566 476.17 1
6 1 10 -508.362 328.649 5
1 6 10 -377.963 593.689 8
-1 6 10 -60.2195 360.489 1
-6 1 10 72.2998 195.809 4
6 1 -10 -35.2399 319.956 3
-6 1 10 -1610.38 654.186 1
-1 -6 10 -282.539 375.651 5
1 -6 10 154.047 297.663 5
-6 -1 10 24.0987 414.333 1
-1 6 10 -714.028 602.035 8
6 -1 10 -804.889 375.655 5
1 6 11 -96.1161 290.006 4
-6 -1 11 373.748 291.963 4
-6 1 11 -77.8375 287.352 4
-1 -6 11 85.0075 240.689 5
-1 6 11 199.47 328.945 4
6 1 11 43.8845 280.596 5
6 -1 11 190.668 283.566 5
-1 -6 11 387.519 292.442 4
1 -6 11 -459.522 385.157 5
1 -6 11 -26.6458 235.955 4
6 1 12 925.456 383.458 5
-1 -6 12 177.704 239.957 5
-6 1 12 523.065 289.213 4
1 6 12 330.87 199.605 4
1 -6 12 84.1662 259.926 5
-1 6 12 342.597 298.131 4
1 -6 12 467.084 322.113 4
6 -1 12 697.035 365.496 5
-6 -1 12 517.792 307.343 4
-1 -6 12 766.425 302.859 4
-6 1 13 -67.6731 198.253 4
-1 6 13 100.676 201.374 4
1 -6 13 -215.39 291.863 5
-1 -6 13 -294.306 329.977 5
-6 -1 13 -287.277 281.267 4
-1 -6 13 56.5504 216.165 4
6 1 13 353.059 225.545 5
1 6 13 -281.801 235.914 4
6 -1 13 483.319 380.618 5
1 -6 13 -101.346 267.329 4
-6 -1 14 -177.847 213.95 4
1 -6 14 -70.4396 225.752 5
6 -1 14 -43.5469 225.855 5
-1 6 14 -92.6702 246.371 4
-6 1 14 199.853 190.108 4
-1 -6 14 -25.6465 214.834 4
-1 -6 14 419.368 299.596 5
6 1 14 19.2672 203.675 5
1 6 14 247.192 208.926 4
1 -6 14 195.63 238.348 4
6 -1 15 26.2104 227.595 5
1 -6 15 -69.1342 159.006 5
-1 6 15 260.788 186.219 4
-1 -6 15 71.6811 170.919 4
-6 -1 15 193.981 175.585 4
-6 1 15 239.477 225.222 4
-6 1 16 83.4967 131.051 4
-6 -1 16 52.8842 127.152 4
6 2 0 8116.62 707.033 3
6 2 0 5119.57 284.528 8
-2 -6 0 9548.06 797.285 9
-6 2 0 1210.96 488.765 1
-2 6 0 1972.47 480.889 7
2 6 0 5980.64 315.555 2
2 6 0 9798.57 832.076 7
-6 -2 0 8868.02 824.188 9
6 -2 0 1960.05 526.964 3
2 -6 0 3892.58 668.711 3
-2 -6 -1 6869.49 668.791 9
6 2 -1 7168.03 661.017 3
6 -2 1 7051.57 719.18 2
6 2 1 8173.99 751.152 2
-2 6 -1 6989.84 725.708 7
-6 -2 1 7584.34 728.333 9
-6 -2 -1 7553.27 694.088 9
-6 2 1 7500.68 649.301 1
-6 2 1 6872.71 410.849 8
-2 -6 1 7980.68 691.985 9
6 2 1 6176.72 383.9 8
-2 6 1 7479.19 598.185 1
2 -6 -1 7116.11 689.963 3
6 -2 -1 7282.78 727.347 3
2 6 1 7577.29 741.787 7
6 2 1 7696.6 559.649 3
-6 2 -1 7391.89 572.932 1
2 6 -1 7341.84 730.961 7
6 -2 1 7755.53 683.351 3
-2 6 1 6708.21 663.928 7
6 -2 2 1014.57 332.151 3
6 2 2 508.407 190.17 8
-2 6 2 4050.56 582.934 1
2 6 2 373.426 296.252 7
2 -6 2 1100.45 319.554 9
-2 -6 -2 752.432 298.472 9
-2 6 2 4727.1 667.558 8
-2 -6 2 528.304 236.303 9
-6 2 2 3730.88 638.215 1
6 -2 2 2144.55 563.271 2
6 2 2 152.466 237.862 2
-6 -2 -2 678.916 245.998 9
-6 2 2 4731.03 508.009 8
2 -6 -2 4879.49 673.393 3
-2 6 -2 1581.66 483.022 7
2 6 2 277.366 274.014 8
6 -2 -2 4051.69 696.344 3
-6 -2 2 359.012 271.449 9
6 2 2 411.124 124.972 3
-6 -2 2 513.375 264.43 1
6 2 -2 499.85 283.875 3
-2 6 2 2834.62 459.442 7
2 6 -2 262.775 260.924 7
-2 -6 3 5518.22 560.446 9
-6 -2 -3 5249.17 639.893 9
-6 2 3 4507.25 328.252 7
-2 -6 -3 5616.66 709.466 9
-6 -2 3 6280.39 731 9
6 -2 -3 6120.91 761.02 3
2 6 -3 5827.24 690.778 7
2 -6 3 5778.93 420.65 9
-2 -6 3 5652.94 586.364 1
6 2 3 4947.32 543.07 8
-6 -2 3 5404.55 684.89 1
-6 2 3 5477.55 592.906 8
6 2 -3 6427.82 738.559 3
6 -2 3 5608.5 693.789 2
-2 6 3 6434.99 686.242 1
-2 6 3 7105.12 783.752 8
6 2 3 5471.45 686.966 2
-6 2 3 6482.41 744.348 1
-2 6 -3 6450.83 747.516 7
2 -6 -3 7261.55 770.271 3
2 6 3 5320.78 715.783 8
-2 6 3 6644.98 635.867 7
-2 -6 4 545.701 325.935 9
-2 6 4 -227.781 173.404 7
-2 -6 -4 1553.68 470.166 9
6 -2 4 8.17523 306.21 2
-6 -2 -4 -151.406 229.579 9
-6 2 4 340.849 221.983 8
6 2 4 259.119 271.895 8
-2 6 4 -820.593 441.837 1
6 2 4 213.877 459.924 2
-6 -2 4 1545.55 502.38 1
2 6 -4 918.119 421.331 7
-2 6 4 -327.106 327.83 8
2 6 4 521.618 397.639 8
-2 6 -4 -307.108 380.794 7
-2 -6 4 377.258 332.008 1
6 -2 -4 60.135 277.118 3
-6 2 4 -7.49757 281.852 1
6 2 -4 269.302 414.662 3
2 -6 -4 148.815 196.974 3
-6 2 5 167.485 252.795 8
-6 -2 -5 9.90737 224.767 9
6 -2 -5 231.143 287.221 3
-2 -6 5 118.67 167.498 1
-6 2 5 -25.7137 361.369 1
6 2 -5 -36.4263 282.619 3
2 6 5 -74.0718 277.497 8
-2 6 -5 -333.637 361.988 7
2 6 5 36.8329 265.889 1
2 6 -5 126.387 202.893 7
-2 -6 -5 -225.449 225.884 9
6 2 5 -176.773 244.331 8
2 -6 -5 -201.852 257.347 3
-2 6 5 -90.8552 405.828 1
-2 6 5 -158.125 300.901 8
-6 -2 5 -148.124 268.96 1
6 2 -6 3620.57 703.716 3
2 -6 -6 2104.78 463.686 3
-2 6 6 2472.91 552.626 8
-6 -2 -6 2649.44 477.7 9
-2 6 -6 2663.95 557.79 7
-2 6 6 3538.62 672.172 1
-6 2 6 2613.85 581.874 1
2 6 6 3430.92 669.46 1
2 6 6 2673.64 639.951 8
2 6 -6 2709.98 560.02 7
6 -2 -6 3811.01 787.287 3
-2 -6 -6 3512.65 650.636 9
-6 -2 6 2951.51 636.637 1
-2 -6 6 3463.15 565.675 1
2 6 7 3286.51 715.035 1
-6 2 7 2208.51 589.23 1
6 2 -7 2569.42 628.793 3
-2 -6 7 2209.13 522.763 1
-2 6 7 2850.96 701.153 1
2 -6 -7 2234.88 531.413 3
6 -2 -7 3383.14 733.749 3
-2 -6 -7 1580.49 507.145 9
-2 6 7 2104.48 645.137 8
2 6 7 2236.12 696.037 8
2 6 -7 2794.11 571.676 7
-2 6 -7 2476.85 588.014 7
-6 -2 7 3587.13 788.124 1
-2 6 -8 744.739 338.992 7
-6 2 -8 173.222 441.51 7
-6 -2 8 178.05 290.377 1
-2 6 8 388.693 364.643 8
-2 -6 -8 280.337 343.866 9
2 6 8 1006.55 605.824 8
6 -2 -8 460.411 388.888 3
-6 2 8 760.267 418.859 1
2 6 8 163.416 282.871 1
-2 6 8 455.056 436.395 1
6 2 -8 952.782 591.701 3
-2 -6 9 570.355 322.763 4
-6 2 -9 1024.12 654.509 7
2 -6 9 747.117 339.857 5
6 2 9 646.978 238.814 5
-6 -2 9 615.635 483.278 1
-2 6 9 894.198 361.686 4
6 2 -9 892.804 425.121 3
-2 -6 9 337.158 286.14 5
-6 -2 9 174.631 196.462 4
-6 2 9 627.231 250.833 4
2 -6 9 239.603 243.971 4
6 -2 -9 1124.64 535.313 3
2 6 9 482.133 373.911 8
2 -6 -9 883.307 402.174 9
6 -2 9 464.546 336.669 5
-2 6 9 949.032 431.228 1
-2 6 9 365.695 466.195 8
-6 2 9 701.576 451.102 1
-2 6 10 -77.4669 304.273 1
-6 -2 10 812.391 534.482 1
-6 2 10 -194.52 420.646 1
-6 -2 10 -4.75639 256.043 4
6 2 10 306.727 262.041 5
6 2 -10 316.513 362.833 3
-2 6 10 55.5267 244.191 4
2 -6 10 568.558 387.266 5
-2 6 10 711.095 470.594 8
2 -6 10 102.201 240.327 4
-6 2 10 408.137 270.862 4
-2 -6 10 165.987 240.931 4
2 6 -10 -213.295 380.363 3
6 -2 -10 -153.809 378.54 3
-2 -6 10 72.1764 319.243 5
6 -2 10 284.945 402.687 5
2 6 10 -879.363 653.903 8
2 6 11 -672.178 301.33 4
-6 2 11 -358.044 294.439 4
-2 6 11 191.585 266.472 4
2 -6 11 279.168 294.138 4
6 2 11 -160.202 297.511 5
-6 -2 11 -318.089 337.235 4
6 -2 11 -10.8948 229.854 5
2 -6 11 -14.7868 272.377 5
-2 -6 11 362.606 365.917 5
-2 -6 11 428.114 323.39 4
-2 -6 12 333.552 290.789 4
-6 -2 12 14.8166 247.482 4
-6 2 12 117.213 225.688 4
2 -6 12 -245.606 304.658 4
-2 6 12 -5.98652 243.091 4
2 -6 12 417.136 311.938 5
6 -2 12 204.298 310.697 5
-2 -6 12 190.068 303.072 5
6 2 12 -230.648 266.382 5
6 2 13 258.931 263.578 5
6 -2 13 264.801 313.772 5
-2 6 13 -188.094 263.858 4
-2 -6 13 29.1468 233.011 5
2 -6 13 -227.602 266.517 4
-2 -6 13 -31.918 241.609 4
-6 -2 13 -130.793 234.121 4
2 -6 13 -39.9449 291.246 5
-6 2 13 -249.808 284.159 4
-6 -2 14 -174.179 200.925 4
-2 -6 14 -161.659 206.855 4
-2 6 14 -286.743 242.345 4
2 -6 14 -242.319 307.205 5
6 -2 14 -95.9831 263.838 5
2 -6 14 -72.6454 209.08 4
-6 2 14 -225.172 244.656 4
6 2 14 134.572 193.99 5
-2 -6 14 -280.625 245.917 5
6 -2 15 39.1361 211.276 5
-6 2 15 -16.7407 152.571 4
-6 -2 15 -212.71 200.777 4
2 -6 15 201.799 210.508 5
-2 -6 15 614.874 271.484 4
-2 6 15 -170.518 202.088 4
-6 2 16 352.917 162.328 4
-6 -2 16 64.8697 140.47 4
-6 -3 0 -171.407 379.867 9
-3 -6 0 -145.75 269.55 9
-6 3 0 56.757 158.571 1
-3 6 0 9.84911 126.645 1
6 -3 0 132.341 224.735 3
3 6 0 71.9646 132.243 2
3 -6 0 229.812 245.898 3
6 3 0 90.8437 140.984 3
3 -6 0 -29.3953 116.707 2
-3 6 0 -194.275 223.368 7
6 3 0 22.9751 129.707 8
3 6 0 238.34 226.76 7
-3 6 1 1250.8 312.848 7
3 -6 -1 1028.86 365.825 3
-3 -6 -1 1376.38 350.936 9
6 3 1 1277.97 246.657 8
3 -6 1 1899.74 430.539 3
3 6 1 1548.54 239.726 2
-3 -6 1 1540.27 348.646 9
-3 6 1 1748.1 317.666 1
6 -3 -1 2416.71 466.434 3
3 6 1 1353.21 369.073 7
6 -3 1 1653.05 380.869 2
-6 -3 1 1287.71 367.276 9
3 -6 1 1458.13 240.003 2
-6 3 1 1508.48 253.656 8
6 3 -1 1253.99 300.31 3
-6 -3 -1 960.33 333.885 9
6 3 1 1373.91 250.303 3
-3 6 -1 1212.13 335.261 7
6 -3 1 1404.73 346.384 3
3 6 -1 1604.91 420.09 7
6 3 1 1554.36 373.801 2
-6 3 1 1053.07 270.845 1
-6 3 -1 1428.31 279.895 1
3 6 -2 3491.1 516.382 7
-6 -3 2 2895.11 490.248 9
6 -3 -2 2958.59 494.041 3
-3 -6 -2 2715.35 466.517 9
6 3 -2 3248.37 507.432 3
-6 3 2 3804.41 427.141 7
-6 -3 -2 3294.14 515.622 9
-6 3 -2 3320.31 340.955 1
-6 -3 2 3761.72 541.727 1
6 -3 2 3367.59 554.058 2
6 3 2 2208.39 186.786 3
-3 6 2 3559.03 558.505 8
6 3 2 3737.83 530.002 2
-6 3 2 3267.25 412.741 8
3 6 2 3290.83 553.037 7
3 -6 -2 3486.26 538.71 3
-3 6 -2 4155.44 608.945 7
6 -3 2 2906.53 448.954 3
-3 6 2 4057.65 501.523 1
6 3 2 3016.72 389.377 8
-3 -6 2 3448.46 509.004 9
-3 6 2 3992.74 507.316 7
-6 3 2 3230 482.752 1
3 6 2 3717.01 564.674 8
-6 -3 3 3836.94 559.791 1
6 -3 3 4208.02 618.026 2
-6 3 3 3671.16 543.745 1
3 -6 3 3301.18 326.258 9
-3 6 3 3542.36 543.984 8
6 -3 -3 3776.08 616.316 3
-3 -6 3 4088.12 524.166 9
-3 6 3 3679.8 475.937 7
3 -6 -3 3441.67 548.899 3
6 3 -3 3675.83 571.177 3
-6 -3 -3 3113.32 464.73 9
-3 6 -3 3708.71 608.422 7
-3 6 3 3548.26 501.996 1
6 3 3 4272.95 531.207 8
3 6 -3 3901.44 572.703 7
-3 -6 3 4357.73 557.569 1
-3 -6 -3 3737.22 549.644 9
3 6 3 3492.57 582.519 8
-6 3 3 3278.28 303.722 7
-6 3 3 3654.07 500.608 8
-6 -3 3 4128.52 598.374 9
6 3 3 4182.75 603.608 2
3 -6 -4 14823.6 1133.09 3
-3 -6 -4 15853.1 1155.95 9
-6 -3 4 15890.8 1189.72 1
6 -3 -4 16000.1 1261.74 3
-3 -6 4 15858 1081.83 1
-3 6 4 15984.3 1148.92 1
3 6 -4 15921.1 1161.18 7
-3 6 4 14180.3 829.535 7
-3 6 -4 15859.8 1246.01 7
-6 3 4 15622.4 1121.12 8
-3 6 4 17124.4 1285.72 8
-6 -3 -4 15976 1127.21 9
6 3 4 16828.1 1141.93 8
6 3 -4 15328.8 1183.86 3
-6 -3 4 16157.9 1153.76 9
6 -3 4 16306.8 1238.09 2
-3 -6 4 14309.7 968.686 9
3 6 4 15780.7 1293.63 8
-6 3 4 15768 1171.99 1
6 3 4 15589.5 1208.46 2
-3 6 5 518.653 354.35 8
3 6 5 625.36 340.336 8
-6 -3 -5 476.456 232.701 9
-3 6 5 416.721 270.773 1
-6 3 5 -34.4072 429.699 1
6 3 5 226.775 243.221 8
-6 -3 5 435.325 313.791 1
6 -3 -5 329.428 308.527 3
3 -6 -5 604.455 348.34 3
6 3 -5 -672.832 502.931 3
-3 -6 -5 195.462 256.722 9
-3 -6 5 299.15 269.982 1
-3 6 -5 330.155 310.078 7
-6 3 5 451.502 312.697 8
-3 -6 5 293.052 155.595 9
3 6 -5 1068.3 372.864 7
3 6 -6 95.3869 200.641 7
-6 3 6 -229.303 292.05 8
6 -3 -6 69.8579 312.176 3
-6 3 6 538.894 431.66 1
-3 -6 6 -175.013 233.879 1
-3 6 6 -323.633 369.412 8
3 -6 -6 -129.831 237.721 3
6 3 6 356.501 241.326 8
-3 -6 -6 95.7464 246.608 9
6 3 -6 -156.434 315.243 3
3 6 6 -425.261 388.792 8
-6 -3 -6 -62.595 217.548 9
-3 6 -6 -309.961 353.312 7
-6 3 -6 108.885 424.74 7
-3 6 6 -234.626 422.905 1
-6 -3 6 -466.433 374.594 1
-3 -6 -7 418.915 252.125 9
-6 -3 7 938.158 353.992 1
3 -6 -7 973.591 385.062 3
-6 3 7 538.168 424.19 8
-3 -6 7 510.092 260.162 1
-3 6 -7 803.095 380.599 7
-6 3 7 1147.75 481.894 1
-6 3 -7 265.274 375.102 7
-3 6 7 477.228 424.31 8
6 3 7 170.745 305.501 8
6 3 -7 645.811 349.423 3
3 6 7 762.806 414.314 8
-3 6 7 494.489 354.588 1
6 -3 -7 775.178 422.486 3
-3 -6 -8 28.9346 261.986 9
-3 -6 8 561.799 296.89 4
-3 6 8 898.762 317.948 4
6 3 8 410.066 196.437 5
6 3 -8 673.008 355.533 3
-3 6 -8 398.541 391.862 7
3 6 8 358.164 468.626 8
3 -6 -8 328.29 234.925 3
3 -6 8 233.831 242.163 5
-3 6 8 943.299 475.415 1
-3 6 8 834.098 484.034 8
-6 -3 8 12.3303 394.249 1
6 -3 -8 185.503 288.359 3
-6 3 8 36.8651 285.388 1
6 -3 8 282.71 226.05 5
-6 3 8 369.908 212.233 4
-6 3 -8 -31.094 405.469 7
3 -6 8 870.611 377.384 4
6 -3 -9 246.359 273.459 3
-6 -3 9 591.402 420.185 1
-3 6 9 836.605 528.81 8
3 -6 9 875.466 359.44 4
-6 -3 9 664.723 334.47 4
-6 3 9 363.267 215.32 4
-3 6 9 1019.09 355.111 4
-3 6 -9 -79.8549 314.322 7
3 -6 9 747.986 402.663 5
-3 6 9 690.176 428.324 1
-3 -6 9 790.159 307.232 5
-3 -6 9 448.57 293.931 4
-6 3 9 855.097 544.099 1
6 3 9 872.387 383.216 5
6 3 -9 646.509 518.229 3
6 -3 9 618.628 274.808 5
-6 3 -9 1103.46 555.841 7
3 6 9 354.633 534.947 8
-3 -6 10 49.1633 202.039 4
6 -3 -10 564.027 434.02 3
6 -3 10 458.513 299.782 4
-6 -3 10 246.411 240.824 4
6 -3 10 393.946 296.807 5
-3 6 10 678.348 667.499 8
-3 6 10 819.842 390.473 4
-6 -3 10 200.926 388.374 1
3 -6 10 -113.015 272.693 5
-6 3 10 958.686 437.462 1
-3 -6 10 470.425 326.747 5
3 -6 10 231.509 251.279 4
-6 3 10 548.93 296.404 4
6 3 -10 391.221 524.794 3
3 6 10 703.697 540.295 8
3 6 -10 178.819 345.65 3
6 3 10 1377.15 500.229 5
-3 6 10 764.772 444.233 1
6 3 11 307.01 348.242 5
-3 -6 11 51.5925 234.128 4
6 -3 11 181.662 212.577 4
-6 3 11 15.2563 250.563 4
-3 6 11 378.191 237.015 4
6 -3 11 -249.608 334.466 5
3 -6 11 163.147 291.734 5
-6 -3 11 306.624 319.743 4
-3 -6 11 296.897 277.756 5
3 -6 11 275.458 300.914 4
6 -3 12 -124.076 302.297 5
-6 3 12 354.176 277.412 4
6 3 12 -284.977 295.711 5
-6 -3 12 -200.222 227.462 4
3 -6 12 -229.56 313.034 5
3 -6 12 296.971 295.673 4
-3 6 12 213.346 297.025 4
-3 -6 12 -226.899 279.905 4
-3 -6 12 117.128 228.144 5
6 -3 12 684.914 298.077 4
-3 -6 13 301.325 271.053 4
3 -6 13 4.62469 255.631 5
-3 -6 13 -24.6299 226.092 5
-6 3 13 -83.1868 214.751 4
3 -6 13 -128.045 213.056 4
6 3 13 -137.873 245.412 5
6 -3 13 -88.7141 254.82 5
-3 6 13 -56.6216 217.599 4
-6 -3 13 -316.489 238.073 4
-3 6 14 49.3332 215.146 4
6 -3 14 -78.7116 211.762 5
-3 -6 14 -315.706 231.939 4
-6 -3 14 -115.834 185.257 4
3 -6 14 -173.195 217.51 5
-6 3 14 13.5369 198.197 4
3 -6 15 -46.8198 172.608 5
-6 -3 15 22.708 161.708 4
-3 -6 15 -62.9364 146.725 4
6 -3 15 -155.763 248.377 5
-6 3 15 -195.127 216.606 4
-3 6 15 161.084 191.861 4
-6 -3 16 21.5032 110.656 4
-6 3 16 -127.936 139.977 4
-4 6 0 6342.51 690.186 7
4 -6 0 6352.69 714.883 3
4 6 0 6468.78 546.833 2
4 -6 0 6289.67 528.387 2
6 -4 0 6777.5 739.573 3
4 6 0 6475.12 705.293 7
6 4 0 6411.82 584.544 3
-6 4 0 6080.08 542.367 1
-6 -4 0 6383.54 686.373 9
-6 4 0 6704.93 720.563 7
-4 -6 0 6802.73 696.283 9
-4 6 0 6383.05 465.335 1
-6 4 1 11781.8 810.169 8
-4 -6 1 11086.1 869.846 9
6 -4 1 10896.9 937.074 2
4 -6 -1 12729.8 1064.76 3
6 -4 1 9700.38 920.86 3
4 -6 1 9897.61 736.286 2
6 4 1 11461.4 905.877 2
4 6 1 10459.4 922.578 8
6 4 1 9898.44 720.049 8
-4 6 1 10565.1 847.781 7
4 6 1 10460.3 681.001 2
-6 4 1 12528.8 897.999 1
-6 4 -1 13466.4 1096.1 7
4 -6 1 11032.5 1017.98 3
-6 -4 -1 10901 895.29 9
6 -4 -1 13182.6 1056.33 3
-4 6 -1 9735.41 906.04 7
4 6 -1 10942.4 903.738 7
6 4 1 10544.2 631.394 3
-6 -4 1 11116.3 910.334 9
4 6 1 9942.36 884.695 7
-6 4 1 10479.6 841.167 7
-4 -6 -1 10584.4 884.969 9
-4 6 1 11647.9 768.768 1
-6 4 -1 10581.4 633.337 1
6 -4 2 12586.1 974.097 3
4 -6 -2 13112.3 1024.44 3
-6 4 -2 10825.8 506.658 1
-6 4 2 13100.2 964.386 1
-6 4 2 12702.9 871.569 8
4 6 2 13113.3 827.232 2
-6 -4 -2 13366.2 1004.07 9
-6 4 -2 13731.8 1143.56 7
6 4 2 12363.3 856.769 8
-4 6 -2 11718.8 1003.96 7
6 -4 -2 12470.6 1024.53 3
4 6 2 13012.6 1057.07 8
-4 6 2 12708.7 898.669 7
-4 6 2 13727.4 926.385 1
-6 -4 2 13425.1 1002.08 9
-4 -6 2 14309.5 1016.64 9
-4 6 2 11565.8 952.499 8
4 -6 2 12971.5 850.637 2
6 -4 2 12807.9 961.99 2
6 4 2 13742.8 1026.29 2
4 6 -2 14026.6 1034.17 7
-6 4 2 12023.5 782.017 7
-4 -6 -2 13410.4 1018.92 9
-4 6 3 2120.04 548.253 8
6 -4 -3 2057.15 603.776 3
-6 -4 3 947.758 329.309 9
-6 4 3 649.559 174.877 7
-4 -6 -3 892.799 353.015 9
-6 4 3 2604.83 520.584 1
-4 6 -3 886.273 441.945 7
4 6 3 601.3 256.418 8
-6 -4 3 1215.85 360.07 1
6 -4 3 770.843 470.734 2
-4 -6 3 787.892 325.142 1
6 4 -3 767.883 333.112 7
-4 -6 3 829.92 282.536 9
6 4 3 1035.96 381.599 2
-6 4 -3 1483.94 510.583 7
-4 6 3 2035.33 476.984 1
4 6 -3 537.339 288.585 7
-4 6 3 1140.36 385.439 7
6 4 3 542.24 221.595 8
-6 -4 -3 537.852 345.557 9
-6 4 3 2809.65 528.811 8
4 -6 -3 1046.24 481.074 3
-6 4 4 5300.63 723.268 1
6 4 4 5017.11 702.709 8
-4 6 4 5244.29 695.78 1
-4 -6 4 5427.06 688.277 9
4 6 4 6194.56 827.345 8
4 -6 -4 5194.61 718.488 3
6 4 4 5636.6 748.044 2
6 -4 -4 6128.25 835.136 3
-4 -6 -4 5326.62 750.523 9
-6 4 4 4408.24 659.44 8
-6 -4 4 6007.05 764.407 9
-4 6 4 5169.16 739.107 8
6 4 -4 5731.35 663.322 7
-6 -4 4 6744.85 818.878 1
-6 4 -4 6263.79 915.454 7
4 6 -4 5722.01 753.764 7
-4 -6 4 5945.07 743.674 1
-4 6 -4 4214.09 718.864 7
6 -4 4 4016.65 621.413 2
-6 -4 -4 4986.79 686.51 9
6 -4 -5 5341.98 811.111 3
4 6 -5 5978.78 806.433 7
-4 -6 5 6105.04 728.613 9
4 -6 -5 6078.6 847.548 3
-4 6 5 5957.02 811.653 1
-6 4 -5 5682.66 907.012 7
-6 -4 5 6198.31 860.545 1
6 4 -5 5326.75 633.13 7
-4 -6 -5 5557.72 809.852 9
6 4 5 5007.85 711.963 8
-6 -4 -5 5571.57 802 9
-6 4 5 4370.14 688.266 8
-4 6 -5 5965.39 858.355 7
-4 6 5 5119.22 796.217 8
-6 4 5 5870.35 849.145 1
4 6 5 6072.47 908.697 8
-4 -6 5 5216.26 747.543 1
4 6 -6 3719.91 611.023 7
-6 4 6 5139.7 887.112 1
-4 6 -6 4008.2 766.454 7
-4 -6 -6 3962.77 700.422 9
-6 -4 -6 3371.02 634.245 9
-4 6 6 4896.9 846.298 1
6 -4 -6 5378.28 958.202 3
-6 -4 6 3668.69 709.053 1
6 4 -6 3331.16 702.294 3
4 -6 -6 5577.35 854.289 3
-6 4 6 6939.91 1002.75 8
-4 6 6 6929.08 1007.05 8
4 6 6 3389.76 740.838 8
-6 4 -6 4166.41 881.805 7
6 4 6 3628.78 701.916 8
-4 -6 6 3582.5 657.946 1
4 6 7 4448.22 957.666 8
6 -4 -7 4706.99 922.268 3
-6 -4 7 5362.28 947.524 1
-4 6 7 2667.28 771.698 8
-4 -6 -7 4811.54 819.788 9
-4 6 7 4219.29 829.15 1
6 4 7 4762.87 864.269 8
6 4 -7 4819.15 1075.68 3
-6 4 7 4330.6 807.984 1
-6 -4 -7 4924.23 775.955 9
4 -6 -7 4055.28 753.196 3
-6 4 7 2746.29 757.128 8
-6 4 -7 4983.34 947.537 7
-4 -6 7 5642.08 883.132 1
-4 6 -7 5219.56 910.967 7
6 -4 -8 3630.69 908.14 3
-6 4 -8 2413.85 711.068 7
-4 -6 8 2512.82 489.849 4
-4 6 8 3586.99 940.762 8
-6 -4 8 2540.84 499.762 4
-4 6 8 2637.48 742.576 1
-6 4 8 2379.14 732.137 1
-6 -4 8 3162.21 680.046 1
-6 4 8 3311.99 586.945 4
6 4 8 2741.3 744.496 8
6 4 -8 2637.85 690.5 3
-4 6 8 3021.45 577.18 4
4 -6 -8 2924.59 725.792 3
-4 -6 8 3037.1 713.944 1
6 -4 8 2800.36 572.232 5
-4 -6 -8 2440.73 594.144 9
4 6 8 2506.53 761.601 8
4 -6 8 2979.94 583.135 5
6 4 8 2880.72 596.553 5
4 -6 8 3350.35 613.168 4
-4 6 -8 2141.38 636.528 7
-4 6 9 1441.63 709.73 8
4 6 9 1832.67 475.759 5
4 -6 9 1482.89 487.114 5
6 4 9 1481.76 479.265 5
-6 -4 9 2123.82 452.221 4
-6 4 9 1424.95 360.557 4
4 6 -9 1148.15 548.485 3
-6 4 -9 2168.63 817.995 7
4 -6 9 2733.6 556.72 4
-6 -4 9 1041.81 502.675 1
-6 4 9 1680.35 683.063 1
-4 -6 9 2176.27 507.419 4
4 6 9 1654.41 754.651 8
6 -4 9 1621.38 434.374 5
-4 -6 9 1259.4 455.803 5
-4 6 9 1221.98 555.444 1
6 -4 9 1728.28 442.808 4
-4 6 -9 952.437 438.356 7
-4 6 9 2048.6 472.19 4
6 -4 -9 250.043 286.31 3
6 4 -9 1452.28 531.006 3
6 4 10 457.463 254.647 5
-6 -4 10 258.053 416.277 1
-4 6 10 123.245 439.18 1
4 -6 10 55.7266 317.126 5
6 4 -10 -131.487 359.943 3
-6 4 10 -517.598 331.097 4
-4 6 10 103.444 219.357 4
4 6 10 -154.707 309.391 5
6 -4 10 207.739 240.717 4
-4 -6 10 295.788 297.428 5
-6 -4 10 444.764 306.957 4
6 -4 10 -200.2 311.436 5
-6 4 10 555.119 402.541 1
4 -6 10 134.186 267.326 4
4 6 -10 215.467 437.759 3
-4 -6 10 425.983 306.629 4
6 -4 -10 725.955 557.657 3
-4 6 11 239.743 200.442 4
-6 -4 11 -202.529 248.341 4
-4 -6 11 -18.2371 207.34 4
-4 -6 11 167.732 313.623 5
6 4 11 -261.53 280.994 5
4 -6 11 123.096 250.43 5
6 -4 11 221.917 294.942 5
6 -4 11 -144.044 229.727 4
4 -6 11 -279.686 229.233 4
-6 4 11 8.53373 229.848 4
-6 -4 12 -47.4384 215.391 4
4 -6 12 180.982 274.63 4
-6 4 12 107.415 260.178 4
4 -6 12 147.806 297.638 5
-4 6 12 123.897 212.57 4
-4 -6 12 39.9142 226.502 5
6 -4 12 10.8179 247.589 5
6 4 12 -156.315 294.118 5
-4 -6 12 545.175 315.527 4
-4 -6 13 20.3133 235.058 4
6 -4 13 -27.779 303.882 5
-6 -4 13 -277.062 276.905 4
4 -6 13 -124.923 255.156 5
-6 4 13 -195.084 244.35 4
-4 6 13 358.838 256.575 4
-4 6 14 585.035 281.707 4
6 -4 14 30.2344 251.889 5
-4 -6 14 -30.8897 202.804 4
4 -6 14 313.098 251.667 5
-6 -4 14 522.256 286.698 4
-6 4 14 10.0708 188.442 4
-4 6 15 114.643 177.272 4
-6 4 15 -168.507 176.421 4
4 -6 15 -59.1105 177.961 5
-6 -4 15 42.6779 150.504 4
-4 -6 15 -95.8823 166.219 4
6 -4 15 -66.3166 189.034 5
5 -6 0 -221.362 261.688 3
5 6 0 212.127 200.758 2
-5 -6 0 -183.349 278.613 9
5 -6 0 -19.8935 155.632 2
-6 -5 0 221.786 270.393 9
-5 6 0 163.004 275.364 7
6 -5 0 -243.959 271.177 3
-5 6 0 48.3703 115.096 1
5 6 0 305.357 310.951 7
-6 5 0 -35.1688 165.051 1
-6 5 0 188.299 245.458 7
5 -6 1 345.438 207.836 2
-6 5 1 168.485 166.593 7
5 6 1 329.311 291.504 8
5 -6 1 352.164 289.907 3
-6 5 1 364.922 171.382 1
6 -5 -1 346.543 266.631 3
-6 5 -1 325.994 121.97 1
-5 6 -1 454.842 340.676 7
-6 -5 1 490.271 269.207 9
5 6 1 424.392 220.625 2
6 5 1 336.913 249.463 2
6 -5 1 34.2553 264.162 2
-6 -5 -1 642.548 339.212 9
-6 5 -1 683.535 340.809 7
6 5 1 580.195 253.188 8
-5 -6 -1 443.145 330.274 9
-6 5 1 570.424 267.255 8
-5 -6 1 61.5379 235.162 9
-5 6 1 475.174 207.126 1
-5 6 1 412.894 231.661 7
5 6 -1 222.905 276.671 7
-5 6 1 329.302 240.221 8
6 5 1 297.448 138.479 3
5 -6 -1 452.696 293.738 3
6 -5 1 506.164 269.993 3
6 5 -2 1294.83 388.11 7
6 -5 -2 1593.9 438.173 3
5 6 2 1562.85 328.411 2
-5 6 2 1620.6 378.694 7
5 -6 2 1812.27 461.556 3
-5 -6 2 1791.98 428.303 9
-6 -5 -2 1344.24 382.807 9
6 -5 2 1298.6 303.099 2
6 5 2 1281.92 326.244 8
-5 -6 -2 1338.38 399.046 9
-5 6 2 1659.52 454.345 8
-6 -5 2 1766.73 421.749 9
-5 6 -2 1510.81 431.982 7
5 6 -2 1756.58 444.64 7
-5 6 2 1503.57 341.474 1
5 6 2 1016.51 356.152 8
-6 5 2 1850.09 388.207 8
6 -5 2 1493.53 414.754 3
-6 5 2 1520.85 368.734 1
-6 5 -2 1426.24 399.701 7
5 -6 2 1676.99 345.628 2
6 5 2 1300.87 332.731 2
-6 5 2 1602.46 340.015 7
5 -6 -2 1175.21 390.951 3
-5 -6 -3 3031.42 564.968 9
5 -6 -3 3368.53 615.001 3
-5 -6 3 4201.38 616.001 1
5 6 3 3924.22 615.504 8
5 -6 3 3494.61 512.4 2
-5 6 3 4223.27 505.711 7
-6 5 3 4272.62 600.499 1
-6 5 -3 4455.96 739.093 7
-6 -5 3 3678.54 593.473 9
6 5 3 3646.29 592.14 2
6 5 3 4084.07 597.151 8
-6 5 3 4140.7 590.947 8
6 -5 3 3799.92 575.852 2
5 6 -3 3543.64 594.501 7
-5 6 3 3110.88 584.22 8
5 6 3 3610.95 529.768 2
-5 6 -3 4253.49 676.963 7
-5 6 3 3523.74 537.264 1
-6 -5 -3 3532.93 581.289 9
6 5 -3 4188.51 613.576 7
-6 -5 3 3864.12 600.103 1
-6 5 3 3508.7 412.949 7
6 -5 -3 3607.09 622.194 3
-5 -6 3 4011.75 597.85 9
-6 -5 4 4746.77 711.948 1
-6 5 4 4967.95 707.211 1
-5 -6 4 3715.68 586.311 1
-6 -5 4 4401.85 660.078 9
-6 -5 -4 4138.91 647.865 9
-5 -6 -4 4911.13 708.608 9
6 5 4 3810.47 614.688 2
5 6 4 3122.77 589.094 8
6 -5 -4 4458.48 697.189 3
-5 6 4 3353.71 587.877 8
-5 6 -4 4478.11 751.635 7
6 5 -4 4150.21 603.475 7
-5 6 4 3903.95 616.041 1
-5 -6 4 4402.47 656.304 9
6 5 4 3874.35 625.35 8
5 -6 -4 3852.41 658.898 3
5 6 -4 4203.36 649.843 7
-6 5 4 4294.63 642.941 8
-6 5 -4 4746.17 781.44 7
6 -5 4 4777.22 692.943 2
-6 -5 -5 5319.33 776.935 9
-5 -6 5 5656.9 825.992 1
-6 5 5 4362.45 785.046 8
-5 -6 -5 5437.72 781.911 9
-6 -5 5 5302.44 827.853 1
5 -6 -5 5855.25 864.233 3
6 5 5 5126.5 779.325 8
5 6 -5 5530.48 751.852 7
6 -5 -5 5891.16 898.648 3
-6 5 5 6434.95 845.442 1
-5 6 5 4323.38 744.581 8
-5 6 5 5702.52 797.075 1
5 6 5 6419.39 922.993 8
-5 -6 5 5208.7 701.657 9
-5 6 -5 7040.07 980.176 7
6 5 -5 4508.4 645.556 7
-6 5 -5 6369.04 971.467 7
-6 -5 -6 391.356 265.209 9
-5 6 6 126.971 255.374 1
6 -5 -6 -57.7179 251.946 3
-6 5 6 576.769 411.869 8
-6 5 -6 150.75 315.121 7
-6 -5 6 -76.6393 355.585 1
-5 6 6 -2.29671 319.448 8
5 -6 -6 212.964 276.849 3
5 6 6 -108.527 297.786 8
-6 5 6 299.691 285.562 1
-5 -6 -6 310.537 276.081 9
-5 -6 6 -37.267 254.387 1
-5 6 -6 -50.418 296.56 7
6 5 6 105.286 321.547 8
-5 6 7 782.914 453.452 1
-6 -5 7 513.547 372.984 1
-5 6 7 163.951 307.28 8
6 -5 -7 149.999 266.157 3
-5 -6 -7 448.6 371.843 9
5 -6 -7 -252.08 251.333 3
-6 5 -7 282.603 370.555 7
-6 5 7 625.928 445.947 1
5 6 7 245.115 320.54 8
6 5 7 518.817 398.484 8
6 5 -7 413.712 418.729 3
-5 -6 7 4.69132 322.823 1
-6 5 7 413.011 409.333 8
-6 -5 -7 479.058 329.675 9
-5 6 -7 242.169 345.683 7
5 6 8 577.723 429.861 8
6 5 8 280.21 232.661 5
-6 -5 8 697.286 353.931 4
-6 -5 8 -348.928 579.928 1
6 -5 8 617.121 279.604 5
-5 -6 8 693.452 362.909 1
-6 5 8 33.8097 243.307 4
5 -6 8 594.263 305.913 4
5 -6 -8 520.14 407.057 3
-5 6 -8 439.692 454.607 7
-5 6 8 292.972 243.302 4
5 6 8 381.192 258.268 5
6 5 8 585.769 318.21 8
-6 5 8 -31.7874 477.805 8
6 5 -8 316.519 439.186 3
-5 -6 8 598.15 313.637 4
-5 -6 8 -191.458 300.244 5
5 -6 8 759.589 336.71 5
-5 6 8 82.5206 323.815 8
6 -5 -8 404.749 339.542 3
6 -5 8 645.262 311.293 4
-6 5 -8 1920.2 721.457 7
-5 6 8 461.182 461.335 1
-6 5 8 632.371 499.341 1
5 6 9 214.725 535.488 8
5 -6 9 9.90206 233.284 4
-6 -5 9 32.3908 190.198 4
-5 -6 9 -91.0746 312.307 5
6 -5 9 -31.055 228.662 4
-6 5 9 -76.3989 382.679 1
-5 6 9 -96.254 429.565 1
-6 5 9 -349.646 373.02 4
-5 6 9 -199.58 238.615 4
6 5 -9 -217.441 309.193 3
5 6 9 1123.95 467.017 5
6 5 9 -186.161 342.142 5
6 -5 -9 -824.257 490.733 3
-6 -5 9 -548.406 487.023 1
5 -6 9 237.413 239.153 5
-5 -6 9 125.029 196.039 4
6 -5 9 37.105 249.337 5
5 6 -9 -176.419 289.433 3
-5 6 -9 446.41 476.49 7
-5 6 9 -50.7514 371.372 8
-6 5 -9 -1175.05 519.633 7
-5 -6 10 347.678 320.752 4
-5 6 10 -95.9438 339.692 1
-6 5 10 172.546 217.795 4
-5 6 10 417.683 320.437 4
5 -6 10 904.423 372.773 4
5 6 10 591.734 322.243 5
-6 -5 10 281.56 238.167 4
6 -5 10 20.6626 237.336 5
6 5 10 433.372 297.876 5
5 -6 10 474.221 286.873 5
5 6 -10 283.57 463.386 3
-6 5 10 623.727 373.837 1
6 -5 10 493.346 299.181 4
-5 -6 10 -338.465 311.085 5
6 5 -10 827.984 433.816 3
-5 -6 11 632.468 338.753 4
-5 6 11 470.033 300.739 4
-6 5 11 690.402 373.504 4
6 -5 11 1011.99 460.258 5
6 5 11 826.911 368.703 5
5 -6 11 528.612 318.674 5
5 -6 11 731.955 307.709 4
6 -5 11 741.817 336.487 4
-5 -6 11 240.892 236.2 5
-6 -5 11 325.038 297.013 4
-6 -5 12 -122.525 293.917 4
-5 -6 12 350.609 241.515 4
6 -5 12 -487.204 346.515 5
5 -6 12 373.272 264.12 5
-6 5 12 257.659 214.532 4
-5 6 12 33.0048 228.921 4
-6 -5 13 -428.242 274.39 4
-6 5 13 440.217 312.359 4
6 -5 13 357.119 322.866 5
5 -6 13 190.877 244.82 5
-5 6 13 263.039 239.196 4
-5 -6 13 636.727 328.599 4
-5 6 14 643.141 292.978 4
-6 -5 14 17.2604 188.726 4
6 -5 14 -27.1915 216.274 5
-6 5 14 137.586 189.465 4
-5 -6 14 196.881 204.509 4
-5 6 15 182.796 163.446 4
-6 5 15 58.7912 174.643 4
5 -6 15 289.903 229.929 5
-5 -6 15 -319.299 196.915 4
-6 -5 15 30.9383 145.555 4
6 -5 15 -105.717 159.672 5
-6 6 0 2825.99 495.958 1
6 -6 0 2848.44 676.71 2
-6 6 0 2431.62 621.968 7
6 6 0 1281.46 327.777 2
-6 -6 0 1335.77 371.537 9
6 -6 0 2961.98 927.559 3
6 6 -1 4067.04 586.704 7
-6 6 1 3635.77 508.387 1
6 -6 1 3479.22 626.359 3
6 -6 1 3706.77 541.846 2
6 6 1 4423.35 586.845 2
-6 -6 1 4058.78 662.012 9
-6 -6 -1 3606.7 569.596 9
6 6 1 4529.87 600.762 8
6 -6 -1 3659.69 672.32 3
-6 6 1 2762.68 489.018 7
-6 6 1 3867.59 629.341 8
-6 6 -1 2800.21 540.868 7
6 6 -2 489.115 353.851 7
-6 6 2 3868.56 666.051 8
6 6 2 337.31 218.327 2
-6 6 2 2332.41 594.027 1
6 -6 2 668.584 487.852 3
-6 -6 -2 795.44 359.881 9
6 -6 2 1568.35 492.944 2
-6 -6 2 203.415 263.014 9
6 -6 -2 4006.75 875.638 3
-6 6 2 748.749 367.917 7
-6 6 -2 637.854 483.705 7
6 6 2 578.782 308.247 8
-6 6 3 12299.2 852.108 7
-6 6 3 14363.7 1117.85 1
6 6 -3 19045.8 1336.93 7
-6 6 -3 13454.7 1270.61 7
-6 -6 3 19148.6 1332.56 9
6 6 3 14826.6 1256.48 8
6 -6 -3 13675.2 1225.34 3
-6 6 3 13837.7 1155.6 8
-6 -6 3 16456.2 1352.67 1
6 6 3 15908.3 1192.73 2
6 -6 3 14490.1 1136.43 2
-6 -6 -3 15358.6 1279.85 9
6 -6 -4 1776.98 554.128 3
-6 6 -4 -235.674 315 7
6 6 -4 1172.59 433.572 7
-6 -6 4 1190.47 448.576 9
6 6 4 564.615 393.143 8
-6 -6 -4 205.941 440.941 9
-6 -6 4 597.826 395.821 1
-6 6 4 1099.76 470.624 1
-6 6 4 1140.22 448.413 8
-6 -6 5 925.452 426.45 9
6 6 -5 426.125 290.576 7
-6 6 5 1358.12 572.43 1
-6 6 5 1734.09 592.752 8
-6 -6 -5 389.231 257.51 9
-6 -6 5 533.818 386.774 1
6 6 5 617.168 387.614 8
-6 6 -5 -149.067 409.728 7
6 -6 -5 2078.55 702.616 3
-6 -6 -6 1883.23 567.002 9
-6 6 6 738.34 431.336 8
6 6 6 1180.63 488.416 8
-6 6 6 563.031 313.611 1
6 -6 -6 1084.69 472.389 3
-6 6 -6 970.874 461.134 7
-6 -6 6 2172.95 567.668 1
-6 -6 7 344.946 347.431 1
-6 6 7 2249.27 779.998 8
-6 6 7 2030.19 700.557 1
-6 6 -7 1596.41 640.213 7
6 -6 -7 1590.82 727.858 3
-6 6 7 3181.5 576.803 4
-6 -6 -7 428.802 314.349 9
6 6 7 1008.07 567.737 8
6 -6 -8 562.042 490.892 3
-6 -6 8 488.979 387.841 1
6 -6 8 -198.583 310.033 5
-6 6 8 -425.712 369.17 1
6 6 8 359.972 327.107 5
-6 6 -8 760.233 512.817 7
6 6 8 -763.357 555.369 8
-6 6 8 897.206 513.236 8
6 6 -8 500.108 360.795 3
6 -6 8 159.638 254.295 4
-6 6 8 151.584 282.108 4
-6 -6 8 354.833 254.904 5
-6 -6 8 411.545 300.822 4
-6 6 -9 2224.23 753.977 7
-6 6 9 2770.41 802.159 1
-6 -6 9 1596.75 461.534 5
-6 6 9 1838.21 464.764 4
6 6 9 2476 590.438 5
6 -6 9 2156.66 530.653 5
-6 -6 9 1982.01 457.017 4
6 6 9 1983.81 747.74 8
-6 6 9 1557.4 592.61 8
6 -6 9 1993.61 484.258 4
6 -6 -9 1091.56 410.126 3
-6 6 10 1688.41 466.35 4
6 -6 10 2839.18 622.435 5
6 6 10 2746.61 646.215 5
-6 -6 10 2356.62 547.996 4
6 -6 11 345.844 315.911 5
-6 6 11 -178.275 231.211 4
-6 -6 11 556.224 351.034 4
6 -6 12 -4.78998 278.861 5
-6 6 12 573.439 304.261 4
-6 -6 12 401.985 673.516 4
-6 -6 13 16.2783 236.014 4
-6 6 13 -73.0577 232.497 4
6 -6 13 79.3444 216.677 5
-6 -6 14 -102.759 165.479 4
-6 6 14 276.183 254.401 4
6 -6 14 146.694 233.385 5
-6 6 15 28.3542 136.083 4
6 -6 15 196.048 303.142 5
-6 -6 15 46.7509 142.183 4
-7 0 0 366.351 253.814 9
0 -7 0 -434.786 330.468 9
0 7 0 -139.135 230.563 7
7 0 0 98.6043 198.784 3
7 0 -1 62455.8 2078.37 3
0 -7 1 62697.2 1918.74 9
0 -7 -1 61572.5 2074.36 9
-7 0 1 62740.9 2157.45 9
7 0 1 61304.6 1849.39 3
-7 0 1 60430.8 1976.81 1
-7 0 -1 62471.5 2048.01 9
7 0 1 61692.9 2148.11 2
0 7 1 63977.8 2150.4 7
0 7 -1 57779.1 2040.96 7
-7 0 2 78526.4 2363.92 1
7 0 2 75669 1917.06 3
0 -7 2 77269 2050.1 9
0 -7 -2 76729.6 2215.13 3
0 -7 -2 76883.6 2391.58 9
-7 0 -2 78804.9 2280.05 9
7 0 -2 76839.6 2431.59 3
0 7 2 77379.2 2377.07 7
7 0 2 74866.2 2425.44 2
0 7 -2 75410.7 2434.49 7
0 7 2 74407.2 2463.94 8
0 -7 3 375536 3657.94 1
-7 0 3 395404 5688.85 1
-7 0 -3 410510 5167.97 9
7 0 -3 404821 5825.09 3
0 7 -3 418555 5954.66 7
0 -7 3 395166 4313.86 9
0 7 3 401276 5492.37 7
0 7 3 386281 5280.04 1
7 0 3 403113 5785.58 2
0 7 3 394984 5931.63 8
0 -7 -3 404861 5094.25 3
7 0 -4 351498 5809.67 3
-7 0 4 365101 5758.01 1
0 -7 -4 357246 5679.44 9
7 0 4 356903 5857.68 2
0 7 4 341822 5380.43 1
0 7 4 334570 5862.17 8
-7 0 -4 346571 4757.34 9
0 -7 -4 333947 4780.95 3
0 7 -4 339434 5705.93 7
0 -7 -5 59481.2 2094.31 3
0 7 -5 60757.5 2528.23 7
0 7 5 61155.4 2526.44 1
7 0 5 61956.7 2663.95 2
0 7 5 64350.1 2772.97 8
0 -7 -5 61569.4 2524.44 9
-7 0 -5 58961.2 1947.04 9
7 0 -5 63241 2709.6 3
-7 0 5 65278.2 2655.47 1
0 7 6 545.859 449.973 8
0 7 -6 630.005 331.388 7
7 0 -6 976.781 457.547 3
-7 0 6 658.851 396.126 1
0 -7 -6 675.404 351.744 9
0 7 6 292.068 293.283 1
0 -7 -7 20948 1672.73 9
-7 0 7 21890.2 1836.8 1
7 0 -7 19552.8 1777.86 3
0 7 -7 19375.3 1581.99 7
0 7 7 21749.6 1770.75 1
0 7 7 17883.1 1803.19 8
0 -7 -8 3673.32 765.224 9
7 0 -8 3429.18 859.309 3
0 -7 8 5166.94 772.251 5
0 7 8 4081.45 839.115 1
-7 0 8 4139.44 925.262 1
7 0 8 4458.48 700.02 5
0 7 -8 3564.61 745.967 7
0 7 8 2844.81 916.252 8
-7 0 8 4008.9 587.619 4
0 -7 8 4349.37 635.517 4
-7 0 9 12543.5 1083.23 4
7 0 -9 12552.2 1595 3
-7 0 9 13645.9 1680.2 1
7 0 9 12144.4 1176.77 5
0 7 9 13426.6 1566.64 1
0 7 9 8802.14 1606.21 8
0 -7 9 13146.1 1149.22 4
0 -7 9 13302.6 1327.7 5
-7 0 -9 10229.7 1462.16 7
0 -7 -9 8770.82 1241 9
0 7 9 11582.8 1061.7 4
-7 0 10 11577.8 1084.49 4
0 -7 10 13110.9 1226.68 4
0 7 10 7370.25 1612.39 8
0 7 10 12252.4 1148.78 4
7 0 10 12942.2 1229.79 5
0 -7 10 12756 1346.43 5
-7 0 10 11907 1641.74 1
7 0 -10 8358.64 1360.8 3
0 7 10 13224.5 1670.37 1
-7 0 11 6792.58 853.306 4
0 7 11 7398.17 897.457 4
0 -7 11 6406.9 969.661 5
7 0 11 5886.41 885.768 5
0 -7 11 6788.2 891.601 4
0 -7 12 5156.62 785.033 4
-7 0 12 5309.59 760.99 4
0 -7 12 5188.38 840.086 5
7 0 12 5804.97 857.482 5
0 7 12 5255.75 736.518 4
-7 0 13 59.1681 208.683 4
0 -7 13 69.9877 238.458 5
0 -7 13 -411.513 238.359 4
0 7 13 152.221 207.726 4
-7 0 14 420.728 246.024 4
0 7 14 791.647 307.377 4
7 0 14 308.455 256.517 5
0 -7 14 680.445 337.208 4
0 -7 14 446.123 274.802 5
-7 0 15 867.463 293.175 4
0 -7 15 950.447 292.236 5
-1 7 0 53682.9 1957.36 7
-7 1 0 55708.7 2045.9 9
7 1 0 50657.4 1738.11 3
-1 -7 0 51304 1847.35 9
-7 1 0 51515.8 1817.67 1
-7 -1 0 51958.2 1898.63 9
1 -7 0 55713.6 1928.65 9
1 7 0 47791.5 1902.69 7
7 -1 0 50431.9 1867.98 3
-1 -7 -1 3068.41 542.549 9
-7 -1 1 2401.95 523.255 9
1 7 1 3020.27 488.455 7
7 1 -1 2464.46 468.278 3
1 7 -1 2653.34 493.97 7
7 -1 1 2641.19 491.085 2
7 1 1 3089.19 548.647 2
-7 -1 -1 2222.29 421.526 9
-7 1 1 2369.36 494.72 1
7 -1 1 1760.73 366.036 3
-7 1 -1 1834.43 444.512 9
1 -7 1 2200.13 418.093 9
-1 -7 1 3317.66 532.22 9
7 1 1 1832.56 343.508 3
7 -1 -1 2189.14 482.065 3
-1 7 -1 2431.53 508.502 7
1 -7 -1 2644.22 504.87 3
-7 -1 1 2356.62 478.764 1
-1 7 1 2793.36 488.723 7
-7 -1 2 8355.65 786.259 1
7 -1 2 7378.11 660.24 3
7 1 2 7763.76 569.463 3
-1 7 2 8768.54 881.236 8
-1 -7 2 8013.05 704.606 9
-1 7 2 8518.44 774.046 1
-1 -7 -2 7484.89 778.313 9
7 -1 -2 10394.5 950.832 3
1 -7 2 7835.76 666.289 9
1 7 2 7767.33 845.35 8
-1 7 2 8715.93 808.055 7
1 -7 -2 9779.18 870.787 3
-7 1 2 9806.32 862.038 1
-7 1 -2 9158.45 813.717 9
7 -1 2 8399.17 912.948 2
7 1 -2 8094.27 799.934 3
-7 -1 -2 8570.94 789.589 9
1 7 -2 8247.37 826.295 7
1 7 2 7971.67 810.099 7
1 -7 2 6140.41 380.176 1
-1 7 -2 7943.41 852.149 7
-7 -1 2 8559.37 845.131 9
7 1 2 8727.93 895.608 2
-1 -7 -3 1082.47 312.43 3
7 -1 3 1450.24 329.542 3
7 1 -3 1363.7 454.249 3
-7 1 3 2121.82 479.534 1
-7 -1 -3 1628.92 473.651 9
-7 -1 3 1828.46 473.431 1
1 -7 3 1099.7 232.022 9
-1 7 -3 1371.3 456.942 7
-1 -7 -3 1315.57 416.304 9
-1 7 3 2135.72 557.481 8
-1 -7 3 1144.18 282.291 1
-1 -7 3 1367.11 339.297 9
-1 7 3 1267.32 339.745 7
-1 7 3 1700.43 429.915 1
7 1 3 1500.83 495.228 2
1 7 3 1397.25 469.059 8
-7 1 -3 1830.09 396.016 9
7 -1 -3 1749.4 452.815 3
1 7 3 1730.65 467.628 7
1 -7 -3 1840.52 425.013 3
7 -1 3 1999.32 595.014 2
1 7 -3 1404.99 433.178 7
1 -7 -4 44438.8 1889.56 3
-1 -7 -4 43300.9 2050.58 9
-7 1 -4 42388 1622.02 9
7 -1 4 44987 2140.44 2
7 1 4 46092.4 2152.5 2
1 7 4 46894.6 2218.06 8
-1 -7 4 35783.6 1314.7 9
7 1 -4 45448.2 2165.66 3
-1 7 4 42436.5 1804.3 7
-1 7 4 43458.9 2163.8 8
-7 1 4 46494.8 2125.66 1
-7 -1 4 47251.9 2098.17 1
-1 -7 -4 41408.2 1548.71 3
1 7 4 41547.7 1920.82 1
-1 -7 4 41904.4 1522.32 1
7 -1 -4 47073.3 2189.42 3
1 7 -4 41671 1959.18 7
-1 7 4 44936.5 2049.63 1
-1 7 -4 41520.6 2038.38 7
-7 -1 -4 41763.9 1755.98 9
1 7 -5 6471.06 855.272 7
7 1 -5 7152.15 983.1 3
1 7 5 8787.8 994.07 1
-1 -7 -5 7376.66 907.945 9
-1 7 5 7582.56 942.147 1
1 7 5 7713 1038.38 8
-1 7 5 9400.97 1110.18 8
7 -1 5 8132.31 1019.46 2
7 1 5 7737.29 976.591 2
-7 1 5 8522.99 1015.39 1
1 -7 -5 7181.02 796.948 3
-7 -1 -5 7142.87 746.042 9
-7 -1 5 8637.24 1048.28 1
7 -1 -5 8071.73 994.893 3
-1 7 -5 7244.08 935.655 7
1 -7 -6 4066.06 639.549 3
-7 -1 6 4581.87 797.445 1
-1 -7 -6 4688.51 767.089 9
-1 7 6 4410.08 783.955 1
1 7 6 5082.87 836.071 1
7 -1 -6 4736.27 831.572 3
1 7 6 4384.2 826.137 8
-1 7 6 5220.25 878.739 8
1 7 -6 4353.45 718.429 7
-7 1 6 3940.48 730.602 1
-1 7 -6 4124.06 752.191 7
7 1 -6 4594.48 828.967 3
7 1 -7 1963.05 634.473 3
-7 -1 7 1557.41 531.924 1
1 7 7 1044.32 551.976 8
1 7 7 1486.02 538.28 1
-7 1 7 1622.58 521.506 1
1 7 -7 1443.17 497.196 7
-1 7 7 2123.56 612.404 1
-1 -7 -7 2022.18 591.22 9
1 -7 -7 1446.6 423.983 9
-1 7 7 2007.61 593.278 8
7 -1 -7 1303.96 497.435 3
-1 7 -7 1208.65 485.008 7
7 1 8 1492.5 418.787 5
-7 1 8 673.109 292.177 4
-1 -7 8 1346.65 454.383 5
-1 7 8 2231.59 785.826 8
1 -7 -8 1253.87 507.125 9
-7 1 8 1052.08 525.561 1
1 7 8 778.788 434.579 1
-1 -7 -8 726.125 430.706 9
1 -7 8 1508.04 423.014 4
-7 -1 8 723.138 462.157 1
7 1 -8 657.526 419.483 3
-1 7 8 1026.04 435.469 1
-7 -1 8 682.099 301.623 4
-1 7 -8 806.666 368.878 7
7 -1 8 1153.83 409.419 5
-1 -7 8 773.006 332.824 4
1 -7 8 1226.33 393.187 5
7 -1 -8 572.483 407.97 3
1 7 8 736.346 483.641 8
-7 1 9 6.42645 412.452 1
-1 -7 9 30.9999 187.656 4
1 -7 9 372.274 268.972 5
-1 7 9 672.112 515.054 1
-7 -1 9 608.171 306.398 4
1 7 9 559.58 402.578 1
-7 1 9 445.659 261.205 4
7 1 9 157.279 225.223 5
1 7 9 -15.7298 177.155 4
-1 7 9 -135.992 470.525 8
-1 -7 -9 547.745 264.893 9
-1 7 9 192.751 233.506 4
1 -7 9 155.039 237.278 4
7 -1 9 427.757 331.775 5
1 -7 -9 1.3669 387.683 9
7 1 -9 362.272 462.625 3
-7 -1 9 539.854 410.395 1
-1 -7 9 342.565 321.211 5
1 7 9 102.04 505.571 8
-7 1 -9 557.573 316.359 7
7 -1 -9 -33.6315 390.599 3
7 1 -10 802.466 469.237 3
7 -1 10 1034.82 393.055 5
-1 7 10 498.525 442.963 1
-7 -1 10 607.555 282.654 4
1 7 10 671.66 334.129 4
-1 7 10 642.659 322.31 4
7 -1 -10 681.765 447.504 3
1 -7 10 841.173 471.915 5
-1 -7 10 1049.24 422.09 4
-7 1 10 1040.22 396.311 4
-7 -1 10 1101.15 572.649 1
-1 7 10 2348.19 880.575 8
7 1 10 560.495 332.655 5
-1 -7 10 887.746 379.815 5
-7 1 10 1394.49 609.959 1
1 -7 10 1568.08 494.585 4
1 7 10 841.879 671.525 8
-7 -1 11 123.918 235.891 4
-7 1 11 -450.681 302.778 4
1 -7 11 64.438 272.242 4
-1 7 11 -205.62 264.739 4
1 -7 11 -22.6089 282.948 5
-1 -7 11 163.391 268.643 5
7 -1 11 18.7684 322.915 5
7 1 11 -93.7026 302.375 5
-1 -7 11 235.699 227.39 4
1 7 11 18.4095 202.218 4
-7 1 12 -334.02 277.421 4
1 7 12 -194.432 250.607 4
7 -1 12 -61.9835 244.905 5
-1 7 12 -194.611 260.969 4
-7 -1 12 10.5087 207.978 4
1 -7 12 264.2 255.373 5
7 1 12 230.445 288.076 5
1 -7 12 224.604 234.634 4
-1 -7 12 112.486 363.104 5
-1 -7 12 582.455 308.016 4
-1 7 13 845.214 346.334 4
1 7 13 482.48 180.614 4
-1 -7 13 638.198 368.632 5
1 -7 13 596.438 348.763 5
-7 -1 13 480.405 249.127 4
7 -1 13 396.629 316.608 5
7 1 13 820.169 323.343 5
-1 -7 13 553.876 269.313 4
1 -7 13 972.025 375.826 4
-7 1 13 269.626 275.238 4
-7 -1 14 108.944 188.906 4
-1 -7 14 -86.2405 202.457 5
-7 1 14 -96.86 192.514 4
7 -1 14 674.597 320.791 5
1 -7 14 -205.379 212.039 5
7 1 14 151.935 194.84 5
-1 -7 14 -187.101 216.364 4
-1 7 14 -83.6762 178.904 4
-7 -1 15 -28.1866 168.834 4
7 -1 15 400.678 229.542 5
1 -7 15 488.196 299.19 5
-7 1 15 -111.588 172.761 4
-1 7 15 -59.6358 129.011 4
-7 -2 0 159.094 224.761 9
2 -7 0 -61.09 243.109 3
7 -2 0 348.303 287.689 3
7 2 0 120.976 164.991 3
-2 -7 0 -199.277 241.669 9
-7 2 0 259.968 189.774 1
-2 7 0 53.9093 311.95 7
2 7 0 -190.333 223.859 7
7 -2 -1 10429.6 897.798 3
7 -2 1 10092 875.208 2
7 2 1 10834.2 917.846 2
-7 -2 1 9779.18 855.945 9
-7 -2 -1 9591.83 834.546 9
-2 7 1 10177.7 718.348 1
2 -7 -1 10307.8 882.621 3
-2 7 -1 10208.5 899.276 7
7 2 1 10762.7 729.472 3
7 -2 1 10699.1 854.797 3
2 7 1 10457.7 905.999 7
-2 7 1 10531.6 875.599 7
-2 -7 -1 9739.76 849.653 9
2 7 -1 10161.8 915.344 7
7 2 -1 10114.3 811.74 3
-7 2 1 10941.9 835.695 1
-2 -7 1 10846 846.614 9
-7 2 -1 10648.2 751.297 1
-2 -7 -2 134309 3174.06 9
-2 7 2 139673 3169.2 7
7 2 2 124096 1984.22 3
7 -2 2 135470 2953.41 3
2 7 2 135124 3290.21 7
2 7 -2 133119 3214.22 7
2 7 2 133192 3389.8 8
7 2 2 136159 3284.39 2
-2 7 2 138891 3385.77 8
-7 -2 -2 137808 3112.48 9
-2 7 2 136360 2940.46 1
-7 -2 2 135021 3194.94 1
7 2 2 121166 2068.35 8
7 2 -2 135097 3158.2 3
7 -2 -2 140300 3384.55 3
-7 -2 2 136993 3232.5 9
2 -7 -2 134803 3161.87 3
2 -7 2 138645 2691.27 9
-7 2 2 127877 2118.42 8
-2 -7 2 136803 2893.73 9
-7 2 2 135884 3112.29 1
7 -2 2 134513 3289.43 2
-2 7 -2 133597 3288.7 7
2 -7 -3 131071 3234.29 3
7 -2 3 126812 2849.68 3
-7 2 3 125622 2628.83 8
-7 2 3 130851 3314.64 1
-7 -2 3 129064 3264.58 1
-2 7 3 130883 3138.8 1
-2 -7 3 125654 2791.65 9
-2 7 3 129119 3021.67 7
2 7 3 130764 3473.42 8
7 2 -3 128538 3336.03 3
-2 -7 -3 129131 3258.98 9
7 2 3 125776 2639.1 8
-7 -2 -3 130969 3127.17 9
2 -7 3 127505 2289.96 9
-2 7 3 128052 3434.96 8
7 2 3 128768 3326.63 2
7 -2 3 130311 3342.05 2
-2 -7 3 127086 2732.72 1
-7 2 3 108432 1972.53 7
-2 7 -3 124030 3390.34 7
2 7 -3 128089 3246.39 7
2 7 3 129384 3362.2 7
7 -2 -3 127468 3457.66 3
-7 -2 3 132827 3327.74 9
-2 7 -4 93420.8 3084.74 7
7 -2 -4 100247 3209.77 3
-2 7 4 97963.5 2961.12 1
7 -2 4 102594 3199.62 2
7 2 4 102661 3188.86 2
-2 -7 4 89590.3 2286.34 9
-2 -7 -4 96014.1 2955.31 9
-7 -2 -4 96721.5 2762.6 9
7 2 -4 97612.2 3156.13 3
2 7 4 94731 3236.93 8
-2 7 4 100135 3231.93 8
2 -7 -4 96446.5 2871.18 3
-7 2 4 97883.1 3056.28 1
-2 7 4 90257.9 2463.3 7
7 2 4 90900.1 2615.61 8
-7 2 4 91729.3 2669.25 8
-2 -7 4 98042 2559.4 1
-7 -2 4 98512.1 3076.66 1
2 7 -4 94452.1 2908.48 7
-2 -7 -5 74920.5 2804.44 9
-2 7 5 74839.2 2816.58 1
7 -2 -5 73047.1 2996.51 3
-2 7 5 75573.4 3016.71 8
7 -2 5 77916.2 3055.27 2
7 2 5 76853.3 2963.81 2
2 7 5 75275.2 3035.59 8
7 2 -5 75333 2928.43 3
-2 -7 5 77735.8 2444.07 1
-7 -2 -5 73104.3 2467.09 9
-7 -2 5 77895.3 2970.34 1
2 7 -5 69121.2 2651.86 7
2 -7 -5 72474.7 2602.87 3
-2 7 -5 71580.6 2856.83 7
-7 2 5 74684.5 2912.63 1
-2 7 -6 11443.7 1211.04 7
2 7 -6 12395 1161.39 7
-7 -2 6 13044 1323.21 1
2 -7 -6 12782.3 1161.86 3
-2 -7 -6 12266.5 1210.14 9
-2 7 6 15115.9 1392.24 1
-2 7 6 11750.6 1314.45 8
2 7 6 13182.9 1399.78 8
7 -2 -6 12979.2 1340.6 3
7 2 -6 11869.4 1306.06 3
-7 2 6 12303.6 1287.41 1
-7 -2 -6 12229.7 1040.92 9
7 2 -7 -34.657 330.65 3
-7 -2 7 -98.3377 372.398 1
2 7 7 -62.9451 344.89 8
-2 7 -7 762.693 454.12 7
2 7 -7 -249.435 253.848 7
7 -2 -7 -92.2201 287.851 3
-7 2 7 -2.39723 372.158 1
-2 7 7 428.006 269.487 1
-2 7 7 321.348 485.437 8
-2 -7 -7 -409.388 360.28 9
-7 -2 8 20381.7 1890.21 1
-7 2 8 18218 1773.15 1
-2 -7 -8 17539.6 1598.56 9
-2 7 8 14785.2 1831.78 8
7 -2 -8 16067.1 1723.63 3
7 2 -8 17674.5 1756.71 3
-7 -2 8 14606 1095.34 4
7 2 8 18248.5 1375.78 5
2 -7 8 21297.2 1533.27 5
-2 -7 8 18525.9 1444.83 5
2 7 8 14922.9 1918.61 8
2 -7 -8 16244.1 1609.84 9
-2 7 -8 16796.2 1638.04 7
2 -7 8 19375.9 1348.83 4
-2 7 8 18892.3 1335.95 4
-2 7 8 18822 1798.85 1
7 -2 8 17535.1 1345.05 5
-7 2 -8 18673.2 1896.93 7
-2 -7 8 18597.2 1303.11 4
-7 2 8 16737.7 1217.83 4
-7 2 9 8617.53 1320.17 1
7 -2 -9 8693.23 1328.06 3
7 2 -9 7239.77 1181.12 3
-2 7 9 9032.7 1379.52 1
-7 -2 9 9478.23 1382.97 1
7 2 9 8991.27 1003.36 5
7 -2 9 8733.55 1010.02 5
2 -7 9 9990.32 1112.95 5
-2 -7 9 9697.27 1119.37 5
2 -7 -9 7865.95 1184.76 9
-7 2 9 9317.54 956.188 4
2 -7 9 9659.87 1022.67 4
2 7 9 8628.74 1591.64 8
-7 -2 9 7773.98 844.077 4
-2 7 9 9671.03 1002.19 4
-7 2 -9 8061.44 1326.38 7
-2 7 9 6720.17 1347.15 8
-2 -7 9 10420.4 1019.34 4
-7 2 10 7736.39 1311.1 1
2 7 10 4536.33 1289.45 8
7 2 10 6699.47 928.971 5
7 -2 10 7568.94 964.662 5
2 -7 10 7081.66 989.572 5
-2 -7 10 7568.26 1009.08 5
7 2 -10 7526.11 1273.3 3
-2 7 10 6878.92 1227.79 1
-2 -7 10 7694.34 936.464 4
-2 7 10 5071.55 1325.62 8
-7 -2 10 5710.92 1124.86 1
2 -7 10 8133 938.677 4
7 -2 -10 5926.37 1125.7 3
-7 -2 10 8058.95 903.947 4
-7 2 10 6505.73 855.338 4
-2 7 10 7238.21 899.566 4
-2 -7 11 10159.4 1078.06 4
2 -7 11 10406.3 1229.9 5
-7 -2 11 9379.31 1006.55 4
7 2 11 10625.8 1155.52 5
7 -2 11 9588.23 1108.24 5
-2 -7 11 9198.98 1122.81 5
-2 7 11 10700.1 1098.74 4
-7 2 11 10062.9 1038.07 4
2 -7 11 10514.5 1091.01 4
-7 -2 12 1131.45 402.222 4
-7 2 12 816.474 358.801 4
-2 7 12 1015.04 379.639 4
2 -7 12 1208.23 495.5 5
7 -2 12 781.831 317.346 5
2 -7 12 1243.21 409.757 4
-2 -7 12 1322.57 458.841 5
7 2 12 985.351 401.959 5
-2 -7 12 1356.4 427.738 4
2 -7 13 -37.675 237.298 4
-7 2 13 -6.56785 213.424 4
-2 -7 13 -73.8201 198.017 4
-2 7 13 137.076 241.25 4
-2 -7 13 -65.3653 255.087 5
7 -2 13 -281.415 270.933 5
2 -7 13 735.489 434.67 5
-7 -2 13 -190.686 193.471 4
7 2 13 -186.519 277.069 5
-7 -2 14 -23.5034 234.019 4
-2 -7 14 832.839 311.304 4
-7 2 14 649.253 313.254 4
-2 7 14 55.7727 180.914 4
7 -2 14 676.35 332.813 5
-2 -7 14 734.713 285.289 5
2 -7 14 285.958 296.278 5
-7 2 15 163.032 179.934 4
2 -7 15 398.941 200.656 5
-2 7 15 44.2734 132.768 4
7 -2 15 338.427 224.624 5
-7 -2 15 599.993 235.295 4
3 -7 0 3894.62 341.539 2
7 3 0 3422.01 301.427 8
3 7 0 4262.92 335.283 2
-7 -3 0 5595.81 677.225 9
7 -3 0 5309.89 714.168 3
-7 3 0 4575.09 533.676 1
-3 -7 0 5709.03 673.786 9
3 -7 0 5641.03 783.582 3
-7 3 0 4639.47 398.86 8
7 3 0 5614 586.461 3
-3 7 0 6009.65 719.941 7
3 7 0 6452.13 735.298 7
-7 3 1 8099.37 721.125 1
-3 7 1 8615.77 834.488 7
7 -3 1 8620.28 840.81 2
7 3 1 9967.8 908.24 2
-7 -3 1 9192.88 857.641 9
-3 -7 -1 8619.66 836.651 9
-3 7 1 7398.7 639.106 1
7 3 1 6787.36 468.35 8
7 -3 1 8650.48 825.954 3
7 -3 -1 8251.41 845.943 3
-7 3 -1 7452.39 604.431 1
7 3 1 8882.16 667.541 3
-3 -7 1 9908.1 815.883 9
-7 -3 -1 9412.06 850.203 9
3 -7 -1 8341.83 844.894 3
7 3 -1 8987.87 812.56 3
3 -7 1 8525.51 859.879 3
3 7 -1 8230.62 830.317 7
-7 3 1 6888.14 474.647 8
-3 7 -1 7915.92 840.01 7
3 7 1 7905.39 848.258 7
-3 -7 2 46972.9 1828.68 9
-7 -3 -2 44602.4 1840.26 9
7 3 2 38637.7 1318.86 8
-7 3 2 44020.9 1584.84 7
3 7 2 45725.3 2044.36 8
-7 3 -2 41608.1 1370.44 1
7 3 2 44292.2 1941.99 2
7 -3 -2 53846.5 2199.42 3
3 -7 -2 55349.9 2159.19 3
3 7 2 46431 1978.43 7
-3 -7 -2 44272.4 1865.97 9
7 -3 2 42521.4 1781.99 3
-3 7 2 48417.1 1874.09 7
7 -3 2 45646.8 1954.21 2
-7 -3 2 44692.3 1923.32 9
-3 7 2 50090.2 1838.61 1
-7 3 2 50743.7 1567.19 8
-3 7 2 46200.9 2150.44 8
-7 -3 2 47964.6 1952.71 1
3 7 -2 44425.8 1919.06 7
-3 7 -2 44690.9 1997.56 7
7 3 -2 47006.5 1891.06 3
-7 3 2 52469 2004.79 1
-3 -7 3 85855.1 2453.27 9
-3 7 3 87327.3 2614.45 1
3 -7 -3 92534.8 2826.36 3
7 -3 3 87269.1 2779.31 2
7 3 3 92994.8 2830.86 2
-3 -7 -3 86700.1 2718.17 9
7 -3 -3 91338.5 2948.33 3
7 3 3 86826.5 2303.82 8
-3 -7 3 88259.2 2470.71 1
-7 -3 3 94328.8 2822.17 9
3 7 3 93194.6 2971.86 8
7 3 -3 92756.4 2858.84 3
-7 -3 3 88803.8 2809.91 1
3 -7 3 83825.9 1869.77 9
-3 7 3 90667.9 2888.59 8
-7 3 3 90918.2 2368.54 8
3 7 -3 90523.1 2806.97 7
7 -3 3 88789.4 2585.91 3
-7 3 3 92236.6 2789.19 1
-7 -3 -3 91761.1 2731.85 9
-3 7 -3 88565 2866.41 7
-3 7 3 92006.8 2527.47 7
-3 7 4 2574.1 412.67 7
-7 -3 4 4102.37 667.122 9
-3 -7 4 2806.44 500.927 9
-3 7 4 2818.64 520.797 1
7 3 4 3437.54 683.964 2
3 7 4 3656.82 704.68 8
-7 3 4 2516.9 573.969 1
3 7 -4 3034.08 591.731 7
-7 -3 -4 3402.13 609.275 9
-3 -7 4 3113.96 543.591 1
7 3 4 1388.23 353.79 8
-3 7 -4 3063.57 623.887 7
-7 -3 4 3519.87 631.403 1
7 -3 -4 2936.58 586.156 3
-3 -7 -4 2728.37 546.06 9
3 -7 -4 3170.55 597.849 3
7 3 -4 3771.8 660.384 3
7 -3 4 3496.05 685.435 2
-3 7 4 2875.32 657.5 8
-7 3 4 2453.42 508.655 8
-7 3 5 8121.51 969.807 1
-7 -3 -5 8110.18 929.942 9
-3 7 5 8792 992.687 1
7 3 5 8742.78 1048.75 2
3 -7 -5 8515.86 959.344 3
7 3 5 6035.69 863.706 8
7 3 -5 8633.07 1064.16 3
-3 -7 -5 9073.17 995.989 9
-3 7 5 8197.19 1059.05 8
7 -3 -5 8991.14 1102.9 3
-3 7 -5 7198.38 970.363 7
3 7 5 8951.78 1116.59 8
-7 3 5 6973.64 898.095 8
-7 -3 5 8537.41 1056.91 1
3 7 -5 7131.54 884.84 7
-3 -7 5 8831.9 922.537 1
7 -3 5 9648.63 1101.96 2
7 3 6 12144.4 1255.74 8
3 -7 -6 13435.1 1252.96 3
-3 7 6 14639.8 1397.55 1
-7 -3 6 15230.2 1470.67 1
-3 7 6 15884.2 1510.89 8
-7 -3 -6 14012.5 1177.48 9
-3 -7 -6 14871.8 1365.78 9
7 3 -6 14182.7 1418.67 3
-3 -7 6 15114.1 1241.24 1
3 7 6 16112.1 1551.46 8
7 -3 -6 17194.9 1582.42 3
-3 7 -6 14019.6 1384.46 7
-7 3 6 9177.42 1201.49 8
3 7 -6 14077.2 1266.76 7
-7 3 6 15281.1 1420.18 1
-3 7 7 13336.2 1438.57 1
-7 3 7 15212.6 1531.2 1
7 3 -7 13244.3 1474.97 3
7 -3 -7 13564.6 1479.49 3
-3 -7 -7 11089.6 1261.1 9
3 7 -7 11644.3 1184.64 7
3 -7 -7 11474.5 1219.31 3
3 7 7 11314.5 1535.72 8
-3 7 7 11988.3 1498.42 8
-7 3 -7 11635.3 1467.06 7
-3 7 -7 12116.5 1372.61 7
-7 -3 7 12761.8 1415.62 1
-3 -7 8 8426.16 896.455 4
3 -7 8 7900.51 972.432 5
7 3 -8 7045.2 1169.77 3
7 -3 -8 7972.86 1284.45 3
-7 3 8 9440.61 1271.19 1
-3 7 8 7604.21 857.41 4
7 -3 8 6875.4 846.115 5
-3 7 8 8458.94 1243.92 1
7 3 8 7683.06 915.691 5
-3 -7 8 8418.28 1000.37 5
-3 -7 -8 6920.67 1002.96 9
-7 -3 8 7424.21 790.528 4
3 7 8 6517.74 1288.38 8
-3 7 8 6391.12 1210.27 8
-7 3 -8 8065.94 1322.64 7
-3 7 -8 8157 1181.68 7
3 -7 8 7654.38 872.918 4
-7 -3 8 7349.66 1191.34 1
-7 3 8 7911.17 858.138 4
7 3 -9 6148.44 1109.4 3
-3 7 9 8090.46 1327.04 1
-3 7 -9 5564.13 1058.28 7
3 -7 -9 7607.3 1169.6 9
3 -7 9 8390.1 968.045 4
-7 3 9 7524.62 885.187 4
7 3 9 7219.99 943.874 5
7 -3 9 7707.91 942.894 5
3 -7 9 9336.4 1090.35 5
-3 -7 9 8670.4 1060.79 5
-3 -7 9 8112.24 927.624 4
-3 7 9 9309.77 985.427 4
-7 3 9 10073.3 1430.48 1
3 7 9 7264.48 1406.1 8
-7 -3 9 8185.26 890.926 4
7 -3 -9 6778.46 1228.3 3
-7 3 -9 5793.26 1104.88 7
-7 -3 9 7953.66 1300.29 1
-3 7 9 7222.78 1428.97 8
-7 -3 10 39.2686 209.885 4
-3 -7 10 384.994 338.853 4
-3 7 10 -53.8019 324.04 1
-7 3 10 522.88 504.54 1
-3 7 10 1.75182 217.018 4
7 -3 10 86.0301 239.341 5
-3 7 10 -387.145 573.512 8
3 -7 10 75.955 243.024 4
7 3 -10 89.0477 438.502 3
-3 -7 10 610.695 350.195 5
-7 3 10 375.89 261.975 4
-7 -3 10 1491.4 665.42 1
3 -7 10 270.132 353.676 5
3 7 10 1396.42 674.485 8
3 7 -10 155.036 378.405 3
7 3 10 73.4627 249.457 5
7 -3 -10 -621.916 642.456 3
7 3 11 321.35 317.61 5
3 -7 11 589.547 404.529 4
-3 -7 11 462.301 287.467 4
-7 3 11 -251.18 226.375 4
7 -3 11 490.216 378.215 5
3 -7 11 699.171 412.644 5
-3 -7 11 -476.719 366.947 5
-7 -3 11 463.514 329.103 4
-3 7 11 -4.40023 233.573 4
3 -7 12 1912.08 525.254 5
-7 -3 12 2106.47 493.103 4
7 -3 12 1200.58 426.884 5
-7 3 12 1757.35 452.058 4
7 3 12 1756.73 494.957 5
-3 -7 12 1991.21 511.623 5
-3 -7 12 2594.45 553.118 4
3 -7 12 2081.11 537.45 4
-3 7 12 2541.84 560.303 4
-3 -7 13 1842.2 444.116 5
7 -3 13 2221.52 548.251 5
-3 -7 13 2562.47 533.779 4
-3 7 13 968.808 344.428 4
3 -7 13 2359.58 575.532 5
-7 3 13 2177.48 467.976 4
-7 -3 13 3013.28 557.689 4
7 3 13 2666.03 573.293 5
-3 7 14 469.386 236.309 4
7 -3 14 403.367 276.357 5
3 -7 14 512.513 318.158 5
-7 -3 14 242.154 214.33 4
-7 3 14 793.786 317.748 4
-3 -7 14 1178.16 340.411 4
7 -3 15 -21.257 204.817 5
-7 -3 15 -106.848 147.506 4
3 -7 15 -173.833 170.565 5
-3 7 15 11.9134 144.52 4
-7 3 15 360.081 220.779 4
4 -7 0 -135.638 312.633 3
-7 4 0 240.934 188.988 1
-7 4 0 198.832 155.015 8
-7 -4 0 149.416 260.287 9
-4 7 0 58.9397 255.654 7
4 -7 0 196.767 148.969 2
4 7 0 -28.9797 119.507 2
-4 -7 0 -199.137 274.749 9
7 4 0 233.243 151.494 8
7 -4 0 -180.689 270.533 3
-4 7 0 32.8263 139.033 1
7 4 0 -216.567 171.238 3
-7 4 0 106.191 281.027 7
4 7 0 209.437 291.424 7
7 4 1 11553.6 808.517 3
7 4 1 12015.9 997.655 2
4 -7 1 10813.2 689.283 2
-7 -4 -1 11044.9 955.518 9
-4 7 1 11552.5 797.357 1
-7 4 1 12759.6 959.07 7
4 7 -1 10656.3 965.836 7
4 7 1 10780.3 662.946 2
7 4 1 10377.4 687.672 8
-7 4 1 12001.7 916.061 1
4 -7 -1 11460.7 1001.58 3
-4 -7 -1 10370.2 945.273 9
7 -4 1 10814.2 965.472 3
7 4 -1 11031.2 907.411 3
7 -4 1 11693.7 1007.84 2
-4 -7 1 12107.8 981.216 9
-7 4 1 11237 736.969 8
4 -7 1 11771.1 1028.49 3
-4 7 -1 12337.9 1011.89 7
-4 7 1 12049.3 991.896 7
-7 4 -1 10975.4 697.358 1
7 -4 -1 11040.2 999.712 3
4 7 1 10548.4 993.832 7
-7 -4 1 12004.8 985.629 9
-4 7 -2 40663 1922.4 7
7 -4 2 42859.3 1918.19 2
-4 -7 -2 41273.8 1839.2 9
-7 -4 2 41929.5 1867.23 9
-7 4 2 44921.1 1835.53 1
-4 7 2 41066.8 1642.82 1
-4 7 2 38896.4 1917.61 8
-7 -4 -2 42585 1891.86 9
4 7 2 43693.4 2018.47 8
-4 -7 2 42885.7 1805 9
7 4 2 42788.8 1873.09 2
-7 4 2 40357.9 1520.05 7
7 4 -2 41448.4 1851.18 3
7 -4 2 42759.5 1875.99 3
4 -7 -2 41831.8 1942.45 3
-7 4 2 39336.9 1482.48 8
7 4 2 38694.6 1463.26 8
-7 4 -2 37602.9 1143.54 1
-4 7 2 41872.7 1744.87 7
4 7 -2 41809.6 1885.29 7
4 7 2 41377.7 1944.77 7
7 -4 -2 40648.7 1951.19 3
7 -4 -3 73515.1 2714.49 3
7 4 -3 71828.6 2595.62 3
7 4 3 67774.9 2148.12 8
-4 7 3 73784.1 2267.55 7
-7 4 3 68009.7 2186.33 8
-4 7 3 71643 2374.6 1
4 -7 -3 72114 2629.5 3
7 -4 3 71177.8 2532.78 2
7 4 3 69550.9 2512.71 2
4 7 3 72688.1 2698.53 8
-7 -4 3 66681.1 2482.09 9
-7 -4 -3 71006 2496.69 9
-4 -7 -3 70259.9 2549.86 9
-4 -7 3 67986.1 2278.06 9
4 7 -3 69053.1 2484.68 7
-4 7 3 70068.7 2590.37 8
-4 7 -3 72695.6 2665.43 7
-7 4 3 72589.4 2531.58 1
-7 -4 3 70774.3 2543.48 1
-4 -7 3 72233.3 2373.99 1
7 4 4 68247.5 2653.29 2
7 -4 -4 66186.5 2739.47 3
-7 -4 -4 62519.5 2449.69 9
4 -7 -4 64635.4 2581.42 3
-4 7 4 60825.7 2424.64 1
7 4 -4 68407.9 2726.29 3
4 7 4 66573.7 2780.61 8
7 -4 4 67864.7 2701.74 2
-4 -7 4 66064.9 2395.58 1
-7 4 4 62382.9 2320.04 8
-7 -4 4 64206 2554.97 9
-4 -7 -4 61178.8 2503.08 9
-4 7 4 59474.8 2647.15 8
7 4 4 59864.8 2261.89 8
-7 4 4 66012.3 2575.13 1
-4 -7 4 60814.7 2247.02 9
-7 4 -4 74573.4 3099.41 7
-4 7 -4 61465.5 2654.02 7
4 7 -4 60487.9 2414.97 7
-7 -4 4 67155.1 2633.47 1
7 -4 -5 7954.54 1037.28 3
-7 4 5 5995.08 854.133 8
7 4 -5 8734.73 1090.35 3
4 -7 -5 7651.57 967.298 3
-4 7 5 7790.01 957.761 1
-4 7 5 7942.4 1011.18 8
7 4 5 6648.83 918.668 8
4 7 5 8373.79 1073.24 8
-4 -7 -5 8652.68 1004.23 9
-7 4 -5 9773.84 1243.94 7
-4 7 -5 8190.45 1038.71 7
-7 -4 5 9166.77 1081.8 1
-4 -7 5 7438.76 784.002 9
-4 -7 5 8085.99 889.548 1
4 7 -5 7472.87 906.257 7
-7 4 5 8256.07 999.255 1
-7 -4 -5 8097.58 912.172 9
-7 4 6 11273.4 1248.51 1
-7 4 6 9148.57 1155.59 8
-7 -4 -6 10280.7 1101.39 9
4 7 6 11727.4 1349.84 8
-4 -7 6 10496.1 1119.9 1
-4 7 -6 10509.2 1272.6 7
-4 7 6 12045.7 1280.49 1
-4 -7 -6 9888.97 1131.43 9
7 4 -6 13537.4 1403.32 3
-4 7 6 12447.9 1371.02 8
-7 4 -6 11517.4 1426.4 7
7 4 6 8112.91 1052.74 8
7 -4 -6 10445.7 1298.58 3
4 7 -6 10130.7 1077.66 7
4 -7 -6 10462.5 1150.43 3
-7 -4 6 11141.9 1267.54 1
-7 4 7 108.923 315.401 1
-4 7 7 269.317 304.821 1
-4 7 7 465.362 423.676 8
-7 -4 7 -259.798 408.323 1
7 4 -7 434.361 416.328 3
4 -7 -7 133.061 275.709 3
-4 -7 -7 -620.477 468.267 9
7 4 7 -253.65 411.666 8
-7 4 7 -1049.16 585.926 8
-4 -7 7 -65.0066 315.442 1
7 -4 -7 391.545 367.137 3
-7 4 -7 732.916 561.606 7
-4 7 -7 618.255 409.294 7
4 7 7 -64.3843 459.247 8
7 4 8 1252.79 447.897 5
-4 -7 -8 861.775 306.457 9
-7 -4 8 1267.81 500.832 1
-4 -7 8 1139.74 370.954 4
-4 7 8 2035.94 666.906 8
-7 4 8 1013.03 379.897 4
4 -7 8 1078.25 369.219 4
-4 -7 8 1527.55 447.056 5
-4 7 8 1112.63 399.27 4
7 -4 8 531.697 258.234 5
-7 4 -8 1066.68 537.007 7
4 7 8 2422.21 809.427 8
-7 -4 8 548.147 223.999 4
7 4 -8 1268.97 559.405 3
4 -7 8 1408.26 432.323 5
-4 7 8 -284.798 469.353 1
-7 4 8 1450.04 569.203 1
7 -4 -8 647.103 475.248 3
-4 7 -8 1045.89 514.136 7
4 -7 -8 695.45 387.418 3
-7 4 -9 11478.4 1610.17 7
-7 -4 9 12398.7 1606.35 1
-7 4 9 13561.2 1643.04 1
-7 4 9 11896.2 1107.18 4
-4 7 -9 10315.4 1472.67 7
-4 7 9 13904.4 1665.95 1
7 4 9 12752.1 1241.34 5
7 -4 9 13221.1 1252.9 5
4 -7 9 13401.5 1292.24 5
7 4 -9 12886.4 1606.98 3
-7 -4 9 13185.8 1120.29 4
7 -4 -9 9180.89 1390.98 3
-4 7 9 14857 1245.53 4
-4 -7 9 13265 1188.76 4
4 7 9 12206.3 1837.51 8
-4 7 9 12322.1 1753.04 8
-4 -7 9 14941.7 1357.07 5
4 -7 9 12770.3 1181.44 4
-7 -4 10 5555.99 1108.78 1
7 -4 -10 5262.88 1099.21 3
-4 7 10 6007.21 1389.4 8
7 4 -10 7539.71 1324.6 3
-4 7 10 7396.02 1311.22 1
-7 4 10 8243.53 1346.8 1
7 4 10 8694.92 1059.49 5
4 -7 10 9407.23 1108.8 5
-4 -7 10 8268.01 1062.36 5
4 -7 10 9242.9 1033.65 4
7 -4 10 7533.18 960.315 5
4 7 -10 6728.87 1217.78 3
-4 -7 10 8333.99 956.717 4
-7 4 10 8531.39 966.034 4
-4 7 10 8624.01 1015.12 4
4 7 10 7560.64 1455.69 8
-7 -4 10 9005.42 972.547 4
-7 -4 11 1138.41 406.613 4
-4 -7 11 1277.48 443.538 4
-7 4 11 661.41 348.626 4
-4 7 11 868.794 396.798 4
-4 -7 11 164.255 236.38 5
7 4 11 538.005 351.09 5
7 -4 11 370.34 376.779 5
4 -7 11 1048.41 430.184 5
4 -7 11 660.051 317.9 4
-4 -7 12 -190.244 223.745 5
-7 4 12 298.421 293.364 4
-4 7 12 12.3212 207.021 4
7 4 12 410.169 323.943 5
4 -7 12 57.9462 281.433 5
7 -4 12 -158.719 253.886 5
-7 -4 12 163.778 251.106 4
-4 -7 12 205.321 299.555 4
-7 4 13 178.98 233.949 4
-4 7 13 299.876 202.304 4
7 -4 13 -315.017 314.236 5
-4 -7 13 -496.992 302.562 5
-7 -4 13 209.281 197.816 4
4 -7 13 387.398 327.897 5
-4 -7 13 151.375 221.089 4
-7 4 14 -99.6453 201.918 4
-4 7 14 361.088 219.943 4
-4 -7 14 -45.8756 203.096 4
-7 -4 14 354.063 225.548 4
4 -7 14 -224.25 266.108 5
7 -4 14 23.756 260.595 5
7 -4 15 329.613 191.124 5
-7 -4 15 249.931 192.522 4
-4 7 15 427.514 218.156 4
4 -7 15 -26.5483 157.76 5
-7 -5 0 9113.78 878.844 9
-5 -7 0 10111.2 908.127 9
5 7 0 9784.98 739.005 2
-7 5 0 10294.7 763.999 1
-5 7 0 9132.78 606.28 1
5 -7 0 10669.3 1021.31 3
7 5 0 9565.04 758.234 3
7 -5 0 10746.2 993.662 3
-7 5 0 11379.2 1011.17 7
7 5 0 8541.87 754.053 8
5 -7 0 9520.6 729.338 2
-7 5 0 9235.05 778.047 8
-5 7 0 10432 961.957 7
5 7 0 9253.52 905.092 7
-5 7 1 26302.9 1528.07 8
5 7 1 26985.9 1205.55 2
7 -5 -1 24741.9 1523.36 3
-5 -7 -1 27602.8 1511.06 9
7 -5 1 25542.5 1524.27 3
7 -5 1 25630.1 1466.28 2
7 5 1 27410.4 1510.25 2
-7 -5 1 27626.2 1544.94 9
5 -7 1 23410.7 1136.98 2
-5 -7 1 27333 1511.72 9
5 -7 -1 26017.3 1567.65 3
-5 7 -1 24449.1 1503.79 7
7 5 -1 27248.4 1412.76 3
-5 7 1 25055 1195.77 1
7 5 1 24266 1213.58 8
-7 5 1 24968.1 1306.01 1
-7 5 1 24359.3 1240.9 8
-7 5 1 24058.3 1340.78 7
-7 5 -1 28878.7 1694.94 7
-5 7 1 24812.8 1421.24 7
5 7 -1 25477.4 1502.26 7
5 7 1 27152.2 1579.52 7
-7 -5 -1 27802.5 1532.02 9
5 7 1 28103.6 1604.03 8
7 5 1 26726.9 1105.29 3
-7 5 -1 23489.8 966.454 1
5 -7 1 24070.4 1538.23 3
7 -5 2 51943.9 2173.29 3
7 5 2 47967.2 1811.64 8
-7 -5 -2 48834.8 2114.86 9
-7 5 -2 54256.8 2453.75 7
-5 7 2 49342.1 1856.22 1
-5 -7 -2 49390.5 2121.81 9
7 -5 -2 49198.8 2196.47 3
-7 -5 2 51854.7 2132.02 9
7 -5 2 49564.2 2057.35 2
-7 5 2 51618.8 2028.83 1
7 5 2 53009 2083.27 2
-5 7 2 51401.5 1999.02 7
5 -7 2 48013.5 1757.43 2
5 7 2 49091.8 1736.95 2
5 -7 -2 48842.9 2176.59 3
-5 7 2 46944.1 2131.72 8
5 7 2 50362.3 2177.13 8
-7 5 2 45703.8 1792.54 8
-7 5 2 48097.2 1768.2 7
5 7 -2 48996.5 2088 7
-5 7 -2 50476.2 2246.18 7
-5 -7 2 51353.2 2068.16 9
-5 7 3 3087.39 493.574 7
-5 -7 -3 6201.95 923.1 9
-5 -7 3 8439.34 885.965 9
-5 7 -3 3381.7 670.62 7
-7 5 -3 4475.88 809.915 7
7 5 3 3906.21 750.818 2
5 7 3 6258 866.241 8
-7 -5 3 7389.85 970.036 1
7 5 3 3756.41 611.229 8
-5 7 3 3980.5 726.891 8
-7 -5 -3 6860.99 878.759 9
7 -5 -3 5013.51 842.328 3
7 -5 3 3857.43 685.571 2
-5 -7 3 6783.39 829.287 1
-7 -5 3 8020.16 940.557 9
-5 7 3 4236.89 667.982 1
-7 5 3 3975.45 630.788 8
5 -7 -3 5403.63 846.062 3
5 7 -3 6645.56 864.843 7
-7 5 3 4415.28 728.293 1
5 7 -4 1220.46 443.813 7
-7 5 4 467.786 270.641 8
5 7 4 668.375 414.475 8
-5 -7 -4 1986.63 597.624 9
-5 -7 4 1177.77 465.536 9
-5 7 4 655.887 406.813 1
7 -5 4 -189.904 239.776 2
7 5 4 148.605 366.222 2
-7 5 4 489.635 301.104 1
-7 -5 4 762.202 490.803 1
7 -5 -4 52.9466 286.394 3
-5 7 4 66.3731 282.042 8
-7 5 -4 728.327 452.187 7
5 -7 -4 582.361 377.238 3
-7 -5 4 1588.27 502.213 9
7 5 4 320.479 285.011 8
-5 -7 4 1352.03 426.339 1
-7 -5 -4 537.882 332.031 9
-5 7 -4 77.8756 281.805 7
-7 -5 5 33354 2055.2 1
-5 7 5 33428 1979.58 1
-7 5 5 31727.1 1977.16 1
-5 -7 5 28810.5 1647.29 9
-5 7 -5 35529.6 2216 7
-7 -5 -5 31488.7 1922.77 9
7 5 -5 35506.9 2179.45 3
-7 5 5 28056.2 1864.11 8
-5 -7 -5 33168.4 1974.24 9
-5 7 5 32148.6 2090.72 8
5 7 5 31452.9 2107.21 8
7 5 5 31854.2 1893.38 8
-7 5 -5 36572.5 2425.31 7
5 -7 -5 34966.6 2119.83 3
5 7 -5 30893.6 1827.3 7
-5 -7 5 33054 1933.98 1
7 -5 -5 36185.9 2223.46 3
-5 -7 -6 60745.5 2797.19 9
-5 7 6 60314.1 2860.56 1
-5 -7 6 60949.2 2816.24 1
5 -7 -6 59026.8 2862.43 3
7 5 6 52990.5 2711.8 8
-7 -5 -6 56987.5 2713.87 9
7 5 -6 65540.6 3136.18 3
7 -5 -6 63184.4 3106.74 3
-7 5 6 62330.7 2934.64 1
-7 5 6 56283.2 2790.45 8
5 7 6 62722.4 3137.64 8
-5 7 6 59181.5 3028.31 8
-7 5 -6 66812.3 3374.41 7
-5 7 -6 58215.2 3058 7
5 7 -6 53406.7 2448.04 7
-7 -5 6 67685.7 3109.17 1
5 -7 -7 39884.6 2446.13 3
-5 -7 7 45085.7 2551.57 1
7 -5 -7 46974.2 2814.49 3
-5 7 7 42432.5 2586.92 1
-7 5 7 37896.6 2471.78 8
-7 -5 -7 41187 2338.62 9
7 5 -7 42871.3 2698.78 3
7 5 7 44356.1 2172.91 5
7 -5 7 42138.3 2020.53 5
5 -7 7 39521 1978.75 5
-7 5 -7 48636 3023.02 7
-7 5 7 40149.7 1864.84 4
-5 -7 -7 40598.5 2390.44 9
5 7 7 41916.5 2817.41 8
-5 7 7 41615.2 2732.94 8
7 5 7 41501.5 2564.57 8
-5 7 -7 45926.6 2823.36 7
-7 5 7 46968.5 2710 1
-7 -5 7 47766 2770.85 1
7 -5 8 22707.1 1583.3 5
7 -5 -8 18956.9 1883.17 3
-5 -7 -8 19801.1 1739.83 9
-5 7 8 25546.1 2190.73 1
-7 -5 8 24776.9 2135.07 1
5 -7 8 24888.7 1664.42 5
7 5 8 27533.3 1781.13 5
7 5 -8 25891.4 2201.7 3
-5 -7 8 25437.4 1544.48 4
5 -7 -8 21396.4 1877.58 3
-5 -7 8 23454.3 1629.38 5
5 7 8 23061.6 2226.42 8
-5 7 8 21292.3 2162.13 8
7 5 8 18916.5 1883.74 8
-7 5 -8 23518.1 2220.9 7
-5 7 -8 24451.8 2197.84 7
5 -7 8 24708.5 1574.11 4
-7 -5 8 21668.2 1378.72 4
-7 5 8 23895.7 1528.29 4
-5 7 8 24707.7 1585.25 4
-7 5 8 25667.3 2166.21 1
-7 -5 9 2949.63 562.92 4
7 -5 -9 2146.95 692.986 3
7 5 9 3194.36 672.804 5
-7 5 9 3719.63 956.875 1
-5 7 9 2965.79 875.734 1
-5 -7 9 3605.18 654.681 4
-7 5 9 2932.13 588.606 4
-5 7 9 3569.2 644.097 4
-7 -5 9 3043.53 837.331 1
-5 7 9 2355.62 851.86 8
7 -5 9 3460.91 673.217 5
5 7 -9 2752.73 801.541 3
5 -7 9 3698.03 661.154 5
-7 5 -9 2124.06 724.929 7
-5 -7 9 3398.48 670.501 5
5 7 9 2165.98 751.767 8
5 -7 9 3387.42 638.633 4
-5 7 -9 2878.13 816.716 7
7 5 -9 1867.41 711.263 3
-5 7 10 5971.7 845.707 4
-7 -5 10 5878.2 799.556 4
5 -7 10 4944.95 832.631 5
-7 5 10 4895.66 743.239 4
7 5 10 6642.28 930.603 5
7 -5 10 7174.67 947.814 5
-5 -7 10 5947.88 897.697 5
5 -7 10 5631.93 806.872 4
-5 -7 10 5475.32 784.243 4
-7 -5 11 332.548 236.123 4
-5 -7 11 419.936 241.802 5
-7 5 11 147.803 224.653 4
-5 7 11 659.105 320.661 4
5 -7 11 556.51 389.459 5
7 -5 11 26.6259 272.96 5
7 5 11 201.167 312.554 5
-5 -7 11 181.501 267.637 4
-5 -7 12 2284.53 531.448 4
-7 -5 12 3026.43 574.464 4
-5 7 12 3357.67 628.816 4
7 -5 12 2680.65 577.191 5
-7 5 12 2614.12 550.929 4
5 -7 12 2432.94 593.255 5
-5 -7 12 2471.2 562.072 5
5 -7 13 2462.77 572.607 5
-5 -7 13 2012.56 488.965 4
-7 5 13 2206.02 498.323 4
-5 7 13 2116.85 479.372 4
7 -5 13 1178.03 394.909 5
-7 -5 13 1875.19 436.02 4
-7 5 14 694.298 258.543 4
-5 7 14 639.93 278.82 4
-5 -7 14 507.148 247.334 4
-7 -5 14 392.734 234.478 4
7 -5 14 1057.47 370.53 5
5 -7 14 304.012 259.767 5
-7 5 15 302.217 181.995 4
-5 7 15 382.112 204.592 4
7 -5 15 -36.2187 160.805 5
5 -7 15 312.262 199.551 5
-7 -5 15 131.676 153.31 4
6 7 0 -155.271 287.902 7
7 -6 0 -124.895 253.036 3
6 -7 0 -78.192 300.403 3
-7 -6 0 103.209 293.89 9
-6 -7 0 550.139 301.334 9
7 6 0 -71.5775 263.745 2
7 -6 0 -54.1693 207.435 2
6 7 0 -23.2843 188.789 2
6 -7 0 -39.719 193.265 2
-7 6 0 280.32 214.524 1
7 6 0 40.0939 164.624 3
7 6 0 -956.391 302 8
-7 6 0 55.829 243.204 7
-6 7 0 12.5217 258.452 7
-6 -7 -1 15446.3 1204.67 9
-6 7 1 14927.9 1129.16 8
7 -6 1 15484.2 1130.97 2
6 -7 -1 16034.1 1277.38 3
-6 7 -1 16856.9 1290.43 7
-6 7 1 16198.9 996.6 1
7 6 1 15553.8 1129.13 2
6 -7 1 16253.8 1314.32 3
6 7 1 15601.2 1020.83 2
7 -6 -1 14658.4 1236.91 3
6 -7 1 13758.3 959.892 2
7 6 1 13669.9 816.713 3
-6 -7 1 14383.9 1181.53 9
7 -6 1 15501 1277.61 3
-7 -6 1 14676.7 1189.71 9
-7 6 1 15821.1 1034.87 1
-7 6 1 14576.7 1054.15 8
-7 6 -1 15154.1 1268.12 7
6 7 -1 14628 1190.35 7
7 6 1 14196.6 1015.98 8
-7 6 1 14818.2 1120.7 7
-6 7 1 17006.1 1219.24 7
6 7 1 15008.3 1205.46 8
-7 -6 -1 15652.8 1242.2 9
-7 -6 2 15248.8 1209.63 9
-7 6 2 16012.1 1147.75 1
-6 -7 -2 15333.5 1235.76 9
-6 7 2 15833.1 1121.07 1
6 7 2 14129.5 1149.11 8
7 6 2 14865.5 1114.98 2
6 -7 2 16489.7 1343.38 3
6 -7 2 15235.9 1077.3 2
6 7 2 15709 1086.48 2
6 -7 -2 16082.3 1328.63 3
7 -6 -2 16564 1347.62 3
7 6 2 14607.7 1078.15 8
-6 7 2 16079.2 1227.16 8
7 -6 2 16151.8 1298.93 3
-7 -6 -2 14306.2 1221.63 9
-6 -7 2 15132.7 1216.11 9
-7 6 2 14906.2 1071.8 7
-7 6 2 14594.5 1092.61 8
-6 7 2 16148 1155.64 7
-7 6 -2 16958.9 1416.12 7
-6 7 -2 15805.7 1326.33 7
7 -6 2 15658.6 1161.18 2
6 7 -2 14409.2 1204.86 7
-7 -6 3 4610.37 727.856 1
7 6 3 5275.01 706.512 8
-7 6 3 5245.52 738.272 1
-7 -6 3 3780.76 647.497 9
-6 7 3 5380.03 706.845 1
-7 6 3 4696.33 698.213 8
7 -6 3 4657.26 687.598 2
7 6 3 4288.75 653.477 2
6 -7 3 5352.44 722.61 2
6 7 3 4413.14 617.128 2
7 -6 -3 5210.3 817.651 3
-6 -7 3 4679.15 715.976 1
-6 -7 -3 5186.35 785.655 9
6 7 3 4135.29 668.288 8
-6 -7 3 5357.82 746.052 9
-7 -6 -3 4937.39 751.216 9
-6 7 3 4515.44 735.075 8
6 -7 -3 5206.24 794.394 3
6 7 -3 5026.19 736.065 7
7 6 -3 5278.81 730.562 7
-7 6 -3 5101.54 844.571 7
-6 7 -3 4670.41 793.032 7
-7 6 4 523.968 310.849 8
7 6 -4 451.087 322.123 7
7 6 4 1314.74 431.765 2
-6 7 4 1037.06 400.226 1
-7 -6 -4 865.075 365.335 9
-6 -7 -4 1118.11 468.538 9
6 7 4 921.202 379.2 8
-6 -7 4 1101.14 396.819 1
-6 -7 4 872.566 364.978 9
-7 6 -4 815.413 428.046 7
-6 7 4 866.879 410.086 8
7 -6 4 850.667 372.887 2
7 -6 -4 509.686 309.508 3
-7 -6 4 680.117 327.562 9
-7 -6 4 935.576 309.324 1
6 7 -4 956.993 358.298 7
7 6 4 1010.68 351.507 8
-6 7 -4 856.951 431.255 7
-7 6 4 593.055 299.796 1
6 -7 -4 934.158 426.213 3
6 7 -5 4395.7 711.793 7
-7 6 5 3176.45 644.166 8
-6 7 5 5071.22 825.933 1
-6 -7 -5 5066.87 811.455 9
-7 -6 -5 4370.06 730.793 9
7 6 5 4448.76 771.388 8
-7 6 5 4458.26 767.965 1
-6 -7 5 2801.4 583.811 9
6 7 5 4398.71 801.873 8
-7 -6 5 4879.09 792.337 9
-6 7 5 4115.83 786.679 8
-6 -7 5 4124.14 734.149 1
-7 -6 5 4690.21 802.183 1
-7 6 -5 5483.11 988.493 7
-6 7 -5 5662.47 957.859 7
7 -6 -5 4291.81 853.924 3
6 -7 -5 4927.85 868.774 3
-7 -6 -6 840.28 435.184 9
-6 7 6 629.019 395.238 1
-6 -7 -6 1497.52 485.876 9
-6 7 6 968.647 475.818 8
-6 7 -6 763.143 393.684 7
7 6 6 996.662 476.848 8
6 7 6 681.751 442.539 8
7 6 -6 1312.35 529.36 3
-7 -6 6 1984.25 591.458 1
6 -7 -6 1169.69 495.469 3
-7 6 6 1126.51 494.782 8
-6 -7 6 879.293 489.408 1
-7 6 6 1542.64 545.753 1
-7 6 -6 4.34509 360.745 7
7 -6 -6 1098.22 603.486 3
-6 7 -7 47.8788 340.773 7
-7 6 7 -159.378 313.271 1
-6 -7 7 -445.662 318.498 1
7 6 7 417.274 302.179 5
-7 -6 7 -272.866 341.89 1
6 7 7 -260.038 350.322 8
-7 6 -7 73.2535 411.348 7
-6 7 7 576.27 501.297 1
-6 7 7 92.7702 303.771 8
7 -6 -7 -54.5095 313.07 3
-7 6 7 406.616 286.242 4
6 -7 7 -26.4337 239.731 5
-7 -6 -7 -23.7538 282.7 9
7 6 -7 156.308 312.297 3
-6 -7 -7 630.189 398.004 9
7 -6 7 406.673 322.494 5
7 6 7 -421.64 433.464 8
6 -7 -7 -845.95 443.367 3
-6 7 8 3896.22 915.34 1
7 6 8 4652.59 793.951 5
-7 6 8 4774.92 978.195 1
6 7 -8 1816.09 673.534 3
7 -6 -8 3108.09 842.361 3
-7 6 -8 2691.65 822.515 7
-7 6 8 3947.09 646.531 4
7 -6 8 3640.11 688.18 5
-6 7 8 2601.46 870.386 8
6 7 8 2754.7 818.046 8
-6 7 -8 3434.37 889.058 7
6 -7 8 4285.1 716.049 5
7 6 -8 3419.97 846.167 3
-7 -6 8 3391.83 592.674 4
7 6 8 1902.28 668.235 8
-7 6 8 1932.34 687.586 8
6 -7 -8 3824.82 880.268 3
-6 -7 8 3961.44 646.351 4
-6 -7 8 3716.19 707.562 5
-6 7 8 3794.85 661.376 4
-7 -6 8 3846 906.379 1
-7 -6 9 3063.71 586.185 4
-6 -7 9 2541.05 584.986 4
-6 7 9 1806.79 747.609 8
-7 6 9 3480.25 633.019 4
7 6 9 3334.26 710.009 5
7 -6 -9 2128.34 677.137 3
-7 6 9 2711.21 812.91 1
-7 -6 9 2409.8 828.619 1
7 -6 9 2908.07 626.148 5
6 7 -9 2562.28 846.412 3
6 -7 9 3170.25 658.832 5
-6 7 -9 1797.82 634.887 7
-6 7 9 3267.7 632.758 4
-6 7 9 2307.09 754.264 1
7 6 -9 2210.46 768.349 3
-6 -7 9 3064.19 624.106 5
6 7 9 2803.23 943.55 8
-7 6 -9 2493.01 772.21 7
-6 -7 10 907.012 347.312 4
-7 6 10 869.875 398.034 4
-6 7 10 684.858 343.374 4
6 -7 10 1226.82 490.263 5
7 -6 10 614.512 355.833 5
-7 -6 10 1355.14 443.585 4
-6 -7 10 910.005 352.69 5
-7 -6 11 668.169 366.81 4
6 -7 11 594.498 414.006 5
7 -6 11 -23.6068 301.331 5
-7 6 11 -247.967 217.694 4
-6 7 11 357.068 299.53 4
-6 -7 11 776.289 293.581 5
-6 -7 11 234.515 305.409 4
-6 7 12 308.822 287.893 4
7 -6 12 -8.23825 249.579 5
-6 -7 12 10.874 212.041 4
6 -7 12 40.9099 247.642 5
-7 6 12 90.0012 227.078 4
-7 -6 12 123.574 206.051 4
-6 7 13 174.884 244.721 4
6 -7 13 84.8157 218.813 5
-6 -7 13 -488.968 319.388 4
-7 -6 13 369.665 281.472 4
-7 6 13 -96.5784 194.071 4
7 -6 13 256.865 300.487 5
-7 -6 14 -0.5469 161.048 4
-7 6 14 65.4797 177.826 4
6 -7 14 420.329 262.358 5
7 -6 14 265.788 253.807 5
-6 7 14 167.439 158.533 4
-6 -7 14 79.2149 200.505 4
-7 6 15 -73.5024 128.561 4
-6 7 15 231.089 153.996 4
6 -7 15 307.243 187.052 5
7 -6 15 330.006 215.696 5
-7 7 0 71717.7 2669.85 7
7 -7 0 68122 2751.06 3
7 7 0 75688.3 2485.56 2
7 -7 0 65364.5 2315.04 2
7 7 0 69375 2518.87 8
-7 -7 0 75359.8 2735.22 9
-7 7 1 41000.4 1667.23 1
-7 7 -1 41103.2 2112.04 7
7 7 1 37517.7 1818.37 8
7 -7 1 36422.6 1698.94 2
7 7 1 41022.8 1802.16 2
-7 -7 -1 43136 2089.66 9
7 -7 -1 39231.4 2107.91 3
-7 7 1 39090.5 1918 7
-7 -7 1 40352.7 2048 9
-7 7 1 38662.7 1869.27 8
7 -7 1 41559 2169.91 3
7 -7 -2 3912.74 735.357 3
-7 7 2 3827.07 635.682 8
-7 -7 -2 9136.48 1033.9 9
7 -7 2 4044.49 720.814 3
-7 -7 2 9398.07 1019.13 9
7 7 2 7470.69 836.882 2
7 7 2 6711.09 851.842 8
7 -7 2 3574.4 614.851 2
-7 7 2 3598 610.486 7
-7 7 2 3212.58 538.256 1
-7 7 -2 4282.38 760.396 7
7 7 -2 8436.1 992.593 7
-7 7 3 10800.6 1061.1 1
7 7 3 9059.88 961.533 2
7 7 -3 10905.9 1139.33 7
-7 -7 3 10045 1158.87 1
-7 -7 3 11944.9 1169.84 9
7 -7 -3 12114.5 1277.67 3
-7 7 3 9087.17 1027.71 8
7 7 3 9325.29 1024.11 8
-7 -7 -3 10528.1 1179.19 9
-7 7 -3 10023 1213.05 7
7 -7 3 9377.91 1018.88 2
7 7 4 7902.8 984.679 8
-7 7 4 7602.86 974.376 1
7 7 -4 9867.69 1108.06 7
-7 -7 -4 9194.61 1165.58 9
-7 7 4 6054.55 949.497 8
7 -7 -4 8904.28 1137.46 3
-7 -7 4 8359.97 1094.15 1
-7 7 -4 8754.64 1174.07 7
-7 -7 4 8754.44 1054.39 9
-7 7 5 20848.2 1705.83 1
-7 -7 5 25026.8 1857.65 9
7 7 -5 21170.1 1623.93 7
-7 -7 -5 23764.4 1889.34 9
7 7 5 18815.7 1670.26 8
7 -7 -5 21710.6 1820 3
-7 7 5 18700.7 1668.02 8
-7 -7 5 23918.3 1884.95 1
-7 7 -5 20379.3 1862.74 7
-7 -7 6 46079.6 2648.99 1
-7 -7 -6 41748.3 2454.46 9
-7 7 6 39954.3 2581.68 8
7 7 6 42591.1 2574.71 8
-7 7 6 43396.9 2558.36 1
-7 7 -6 51197.1 3084.88 7
7 -7 -6 45077.5 2730.61 3
-7 7 -7 69754.6 3763.07 7
-7 7 7 66737.2 3360.82 1
7 7 7 62012.9 3377.98 8
7 -7 -7 64237.5 3385.17 3
7 7 -7 72233.9 3743.53 3
7 -7 7 60708 2512.36 5
-7 -7 -7 66263.5 3228.92 9
-7 -7 7 53950.6 2160.08 4
-7 7 7 59381.3 3333.01 8
-7 7 7 65655.8 2510.92 4
-7 -7 7 70216.9 3490.92 1
-7 7 8 55725.8 2373.93 4
-7 -7 8 49339.6 2340.37 5
7 7 8 45225.5 3051.71 8
-7 -7 8 48185.1 2098.61 4
7 7 -8 52530.7 3225.93 3
7 -7 8 50957.6 2392.57 5
7 -7 -8 45603.8 2962.08 3
-7 7 8 36977.7 2829.3 8
-7 -7 8 47906.6 3007.74 1
-7 7 -8 53044.2 3428.2 7
-7 7 8 52702.7 3181.28 1
-7 7 9 24919.9 2337.2 1
7 7 9 23402 2291.25 8
-7 7 9 29780 1811.49 4
7 7 -9 25409.7 2337.37 3
-7 7 -9 24741.5 2436.84 7
7 -7 9 27480.1 1822.08 5
-7 -7 9 26150.9 1755.88 5
-7 -7 9 29353.8 1697.44 4
-7 7 10 2764.83 572.011 4
-7 -7 10 2101.69 495.2 4
7 -7 10 2083.45 557.448 5
7 -7 11 2179.18 565.375 5
-7 7 11 2542.29 564.194 4
-7 -7 11 2074.02 489.446 4
-7 7 12 1298.88 428.221 4
-7 -7 12 2495.53 521.418 4
7 -7 12 2939.08 623.936 5
-7 7 13 1156.12 331.36 4
7 -7 13 1329.09 405.121 5
-7 -7 13 1729.51 398.42 4
-7 7 14 1203.62 303.179 4
7 -7 14 1030.43 347.533 5
-7 -7 14 569.245 229.88 4
-7 7 15 412.754 215.19 4
7 -7 15 638.001 231.864 5
0 8 0 29540.1 1584.03 7
0 -8 0 29987.4 1537.34 9
8 0 0 28512.6 1481.89 3
-8 0 0 26855.1 1522.18 9
-8 0 1 -34.1856 229.346 1
8 0 1 895.672 356.177 2
-8 0 -1 504.789 341.033 9
0 -8 -1 19.4891 222.531 9
-8 0 1 274.881 266.563 9
8 0 1 -3.71162 188.709 3
0 -8 1 345.578 251.653 9
8 0 -1 49.982 218.279 3
0 8 -1 18.0697 243.191 7
0 8 1 428.571 291.661 7
0 -8 -2 27383.6 1458.42 3
8 0 2 26527.4 1537.1 2
8 0 -2 28064.5 1576.65 3
-8 0 -2 29233.4 1512.66 9
0 -8 -2 29535.6 1595.14 9
8 0 2 29134 1293.29 3
-8 0 2 27525.3 1540.51 1
0 8 2 25787.5 1550.19 8
0 8 -2 26956.3 1578.18 7
0 8 2 27920 1562.46 7
0 -8 2 28224.6 1359.36 9
0 -8 3 39744.2 1535.27 9
0 -8 -3 45206.2 2069.7 9
8 0 3 42505.5 2022.08 2
8 0 3 40056.9 1412.67 3
-8 0 -3 43903.7 1895.64 9
0 -8 -3 42201.9 1808.18 3
0 8 3 41713.4 2125.86 8
-8 0 3 45349.2 2071.15 1
8 0 -3 46689.4 2149.29 3
0 8 -3 40837 2004.2 7
0 8 3 43869.9 1995.31 7
8 0 -4 80409.1 2991.38 3
0 8 -4 72906.7 2841.76 7
-8 0 -4 71727.6 2358.71 9
8 0 4 76515.3 2915.53 2
0 -8 -4 71141.3 2377.2 3
0 -8 -4 79865 2899.72 9
0 8 4 77092.6 2986.17 8
0 8 4 72343.1 2666.42 1
-8 0 4 77191.6 2889.04 1
0 8 4 75699.5 2673.43 7
0 8 5 3418.63 744.936 8
0 -8 -5 2094.44 452.862 3
0 8 -5 3141.8 650.852 7
8 0 5 2735.46 563.941 2
0 -8 -5 3288.29 666.789 9
8 0 -5 2732.2 676.645 3
0 8 5 3101.34 645.048 1
-8 0 5 3372.28 731.742 1
8 0 -6 1221.96 465.902 3
-8 0 6 1227.64 529.668 1
0 8 -6 1628.04 507.347 7
0 -8 -6 860.144 460.183 9
0 8 6 1206.43 514.38 1
0 8 6 1257.12 565.506 8
-8 0 7 696.706 417.91 1
0 -8 -7 986.774 476.392 9
0 8 7 323.655 430.489 8
8 0 -7 820.927 405.459 3
0 8 7 1509.39 564.494 1
0 8 -7 621.759 425.286 7
0 -8 8 150.768 238.91 4
0 8 8 145.057 345.223 8
0 -8 -8 -199.963 353.306 9
0 8 8 107.015 223.86 4
-8 0 8 77.4458 354.994 1
0 8 8 -34.5811 331.502 1
8 0 8 319.061 312.994 5
0 8 -8 499.426 447.705 7
8 0 -8 220.062 310.775 3
0 -8 8 571.358 296.306 5
-8 0 8 -73.5947 231.265 4
0 -8 -9 1081.81 457.131 9
8 0 -9 2259.15 779.26 3
-8 0 9 2008.44 500.514 4
0 8 9 1997.91 482.031 4
0 8 9 1961.82 678.535 1
8 0 9 2515.1 551.706 5
0 -8 9 3275.76 670.277 5
0 8 9 1342.62 818.127 8
0 -8 9 1920.76 503.106 4
-8 0 9 3385.54 890.991 1
-8 0 10 277.427 257.899 4
0 8 10 -277.076 341.282 4
8 0 10 870.673 413.543 5
-8 0 10 -226.37 366.752 1
0 -8 10 -258.231 327.417 4
0 8 10 -993.619 607.93 8
8 0 -10 327.44 421.367 3
0 -8 10 -160.593 375.366 5
0 -8 11 3023.02 640.099 4
8 0 11 3152.79 662.67 5
0 8 11 4001.62 654.384 4
-8 0 11 3389.3 642.153 4
0 -8 11 3739.5 749.819 5
-8 0 12 2351.21 526.669 4
0 8 12 3471.63 636.165 4
8 0 12 2956.36 662.243 5
0 -8 12 2681.84 586.769 4
0 -8 12 3485.72 699.456 5
0 -8 13 3015.68 612.169 5
0 8 13 3741.99 571.2 4
-8 0 13 3178.88 558.439 4
8 0 13 3564.07 653.317 5
0 -8 13 3556.35 627.754 4
-8 0 14 257.153 241.747 4
8 0 14 -156.092 193.558 5
0 -8 14 -291.228 277.723 5
0 -8 15 180.342 169.042 5
-8 0 15 139.63 144.888 4
8 -1 0 5.59537 224.363 3
-8 1 0 144.515 236.958 1
1 -8 0 -82.6481 194.811 9
-1 -8 0 -291.569 279.908 9
-8 -1 0 247.482 266.547 9
8 1 0 -288.091 249.8 3
-1 8 0 79.7465 261.132 7
1 8 0 46.2676 248.521 7
1 8 -1 1775.23 472.692 7
8 1 1 1542.68 341.668 3
1 -8 -1 1312.76 354.994 3
1 -8 -1 1952.13 472.933 9
-1 -8 -1 1620.92 451.744 9
-8 -1 1 1197.57 399.703 9
8 1 -1 1544.95 408.655 3
8 -1 1 1209.79 365.514 2
8 1 1 1220.72 361.859 2
-8 -1 1 935.934 315.195 1
-1 -8 1 1294.53 357.952 9
-1 8 -1 1776.4 455.046 7
-8 1 1 1455.67 339.206 1
1 -8 1 1558.34 364.292 9
-8 -1 -1 1388.25 385.303 9
-8 1 -1 1648.99 399.92 9
8 -1 -1 1326.88 401.199 3
-1 8 1 1879.92 464.799 7
8 -1 1 1555.85 386.922 3
1 8 1 1447.86 381.695 7
8 1 -2 25244.1 1475.37 3
8 -1 -2 26329.5 1568.99 3
-8 -1 2 24509.4 1488.37 9
-8 1 -2 26682.3 1457.04 9
-1 -8 2 25930.3 1339.88 9
8 -1 2 24377.4 1525.42 2
8 1 2 25077.4 1538.42 2
-8 1 2 26986.4 1505.98 1
1 -8 -2 25960.7 1450.17 3
-8 -1 -2 24950.7 1418.74 9
-8 -1 2 24552.9 1435.47 1
8 1 2 24707.9 1109.33 3
-1 -8 -2 23552.7 1448.84 9
1 -8 2 26884.9 1323.34 9
8 -1 2 24806.4 1282.28 3
1 8 2 24937.2 1537.35 8
-1 8 -2 24038.5 1488.06 7
1 8 -2 22774.7 1454.85 7
-1 8 2 26022.1 1492.57 7
1 8 2 25504 1522.03 7
-1 8 2 25148.2 1548.24 8
-1 -8 -3 248.035 319.694 9
1 8 3 585.403 330.227 8
1 -8 -3 147.508 194.904 3
8 -1 3 -116.09 217.404 3
-8 -1 3 -174.134 314.008 1
8 1 3 279.748 269.526 2
8 -1 3 -126.072 338.926 2
1 -8 3 111.824 174.24 9
1 8 3 289.89 348.857 7
-8 1 3 -167.402 263.515 1
-1 8 3 21.7706 237.557 1
-1 -8 3 -27.723 155.936 1
-8 -1 -3 85.7312 212.065 9
-1 -8 3 -14.7384 182.231 9
-1 8 3 43.5469 330.537 8
8 1 -3 -297.308 278.124 3
8 -1 -3 294.643 331.396 3
-8 1 -3 -448.651 366.904 9
-1 8 -3 474.999 387.936 7
-1 8 3 -124.289 301.127 7
1 8 -3 59.7715 257.772 7
-1 8 4 1431.25 391.932 7
1 8 4 1325.74 513.942 8
-8 1 -4 751.286 276.29 9
-8 -1 -4 1109.43 327.677 9
-1 -8 -4 1079.24 399.39 9
-1 8 4 1501.93 426.396 1
8 1 4 923.405 436.148 2
-1 8 -4 1985.1 561.483 7
8 -1 4 1100.86 431.57 2
1 8 -4 1453.78 478.985 7
1 -8 -4 697.124 351.93 3
-1 8 4 961.178 465.006 8
-8 -1 4 1211.09 487.694 1
8 -1 -4 1536.67 517.851 3
8 1 -4 1519.19 442.421 3
-8 1 4 1387.03 487.604 1
-1 8 5 236.477 286.531 1
8 1 -5 252.645 341.366 3
-1 8 5 512.531 371.518 8
-8 -1 -5 74.0085 191.576 9
8 -1 5 42.4454 297.238 2
-1 8 -5 752.649 392.054 7
8 1 5 647.475 412.092 2
-8 -1 5 538.766 386.013 1
1 -8 -5 -164.594 279.269 3
-1 -8 -5 192.424 298.503 9
1 8 -5 450.992 269.05 7
8 -1 -5 -40.7225 379.976 3
1 8 5 106.819 324.104 8
-8 1 5 301.169 328.327 1
-8 -1 6 1057.95 388.138 1
-8 1 6 1199.78 474.916 1
-1 8 6 890.54 451.448 1
1 8 6 1055.46 426.413 1
-1 8 -6 1393.06 566.805 7
1 -8 -6 866.387 359.106 9
-1 -8 -6 1699.13 535.121 9
8 1 -6 1219.22 433.471 3
-1 8 6 1395.54 530.178 8
1 8 6 947.916 426.033 8
8 -1 -6 855.839 444.353 3
1 8 -6 1083.48 459.146 7
-1 8 7 642.089 426.941 8
-1 8 7 209.55 266.861 1
1 8 -7 799.763 413.844 7
-8 -1 7 851.189 539.674 1
-8 1 7 819.299 482.765 1
1 8 7 1066.6 432.579 1
-1 -8 -7 602.808 318.098 9
1 -8 -7 838.618 382.93 9
-1 8 -7 783.156 383.632 7
8 1 -7 497.268 343.78 3
1 8 7 645.116 485.113 8
8 -1 -7 1053.1 466.884 3
-8 1 8 2949.98 537.744 4
-8 -1 8 3625.8 865.002 1
8 -1 8 3315.29 612.118 5
1 8 8 3350.28 962.905 8
1 -8 -8 2686.46 683.615 9
-1 8 8 2434.1 668.707 1
-1 8 8 1860.73 786.045 8
-1 8 8 3197.03 583.117 4
-1 -8 -8 2870.92 766.786 9
1 -8 8 3573.45 704.297 5
1 -8 8 2896.51 547.683 4
8 1 8 3167.93 616.765 5
-1 -8 8 2976.16 553.33 4
-8 1 8 1923.44 735.33 1
-1 8 -8 1880.65 605.676 7
8 1 -8 2982.58 800.059 3
-8 -1 8 2342.27 469.994 4
-1 -8 8 3817.18 711.426 5
8 -1 -8 2978.06 800.136 3
1 -8 9 265.674 231.118 4
8 1 -9 -183.236 386.888 3
1 8 9 -44.8339 537.589 8
-8 -1 9 -226.868 489.008 1
-1 -8 9 -333.716 345.87 4
8 -1 9 236.269 256.088 5
-8 1 9 -407.742 270.706 4
8 1 9 -112.492 291.294 5
1 8 9 -62.0836 202.446 4
-1 8 9 -493.13 575.949 8
-1 8 9 -52.2313 219.244 4
-8 1 9 177.204 325.95 1
8 -1 -9 -711.359 480.525 3
-1 -8 -9 -154.375 418.298 9
-1 8 9 -3.14384 363.66 1
-8 -1 9 -881.779 334.718 4
1 -8 -9 -618.828 499.942 9
-1 -8 9 -226.543 345.286 5
1 -8 9 280.941 299.449 5
-8 1 -9 -454.077 514.163 7
-8 1 10 -955.48 617.829 1
8 1 -10 317.773 471.878 3
1 -8 10 140.281 292.199 5
-8 -1 10 -58.3826 238.763 4
1 8 10 -234.283 332.2 8
1 8 10 -337.483 221.315 4
-1 -8 10 346.935 376.626 5
-1 8 10 -325.578 255.003 4
8 -1 -10 -444.469 486.313 3
-8 1 10 -75.0919 239.292 4
-1 8 10 322.514 349.838 1
1 -8 10 -246.974 276.169 4
8 1 10 -165.395 265.094 5
-8 -1 10 215.11 312.252 1
8 -1 10 506.188 341.302 5
-1 8 10 -53.9099 365.584 8
-1 -8 10 -334.745 249.359 4
-1 -8 11 640.631 368.709 4
-8 1 11 -255.413 333.306 4
1 8 11 36.2037 249.001 4
-1 8 11 172.654 279.598 4
8 1 11 -62.2569 257.506 5
8 -1 11 126.024 247.014 5
1 -8 11 -228.244 322.644 5
-1 -8 11 621.068 379.106 5
-8 -1 11 619.321 337.809 4
1 -8 11 179.741 234.38 4
-8 -1 12 -36.1767 223.222 4
-8 1 12 554.059 318.184 4
1 8 12 -286.394 221.904 4
-1 -8 12 444.934 321.385 4
-1 8 12 -186.935 230.416 4
1 -8 12 -127.376 240.919 4
8 -1 12 211.377 243.411 5
1 -8 12 476.547 327.015 5
-1 -8 12 362.136 330.582 5
8 1 12 -18.893 272.363 5
-8 1 13 -35.6284 206.799 4
-8 -1 13 -66.1504 190.357 4
-1 -8 13 -157.629 299.274 5
-1 8 13 20.0778 246.051 4
8 -1 13 -273.665 227.397 5
1 -8 13 226.509 287.168 5
8 1 13 -478.235 351.55 5
-1 -8 13 -112.279 211.611 4
-8 1 14 -32.6895 181.572 4
8 1 14 323.548 261.312 5
-1 -8 14 193.037 189.137 5
8 -1 14 -41.6018 206.893 5
1 -8 14 -136.309 262.577 5
-8 -1 14 235.613 240.463 4
-1 8 14 -268.774 189.488 4
1 -8 15 242.719 168.979 5
-8 1 15 -176.03 196.232 4
-8 -1 15 -219.892 163.046 4
8 2 0 40093.7 1667.69 3
2 -8 0 45359.3 2006.69 3
8 -2 0 38427 1797.04 3
-2 -8 0 43023.8 1872.02 9
-8 2 0 38700.4 1611 1
-2 8 0 40086.7 1854.91 7
2 8 0 41533.2 1874.93 7
-8 -2 0 41332.2 1880.08 9
2 8 1 1266.66 373.671 7
2 -8 -1 2903.68 654.629 3
-2 -8 1 1630.49 377.556 9
-8 -2 -1 1382.4 399.886 9
8 -2 -1 2646.14 612.542 3
8 2 1 1025.16 315.19 2
8 2 -1 1506.89 408.497 3
-8 2 -1 1361.41 367.958 1
-8 -2 1 1846.25 511.859 9
2 -8 1 1759.17 436.599 9
-8 2 1 2006.44 602.296 1
8 -2 1 1953.8 485.78 2
-2 -8 -1 1526.4 427.536 9
8 2 1 1867.61 365.109 3
-2 8 -1 1640.1 497.356 7
8 -2 1 1776.98 472.831 3
2 8 -1 1365.01 411.682 7
-2 8 1 2308.78 549.49 7
-2 8 2 18493.9 1266.08 7
8 2 -2 25119.5 1503.71 3
-2 -8 2 24324.6 1436.74 9
8 -2 2 17041.6 1271.79 2
8 2 2 19015.4 1460.06 2
-2 8 2 17837.7 1137.39 1
8 -2 -2 17253.7 1292.28 3
2 -8 -2 18138.2 1256.9 3
2 -8 2 17088.8 1057.88 9
-2 -8 -2 25404.4 1552.5 9
-8 -2 -2 20334.7 1369.48 9
-8 -2 2 24899.5 1551.33 9
8 -2 2 16463.1 1109.26 3
2 8 2 24251.6 1588.22 8
8 2 2 16679.7 835.541 3
-2 8 2 15944.6 1254.92 8
-8 -2 2 26942.7 1580.35 1
2 8 -2 23089.8 1504.48 7
-2 8 -2 15794.6 1226.39 7
2 8 2 25851.9 1559.86 7
-8 2 2 18871.5 1264.18 1
-2 8 -3 46053.7 2213.27 7
2 8 3 49927.2 2216.39 7
8 -2 3 44834.9 1821.55 3
-8 -2 3 48665.5 2250.73 9
2 -8 -3 47114.5 2055.9 3
-2 8 3 43722.4 2181.82 8
8 -2 -3 47427.9 2227.64 3
8 -2 3 47188.4 2154.88 2
-2 8 3 48792.8 2040.72 1
-2 -8 -3 46767.8 2158.22 9
8 2 -3 48322.9 2228.09 3
-2 -8 3 47706.8 1870.13 9
-8 -2 -3 47822.6 2077.69 9
2 8 3 50619.2 2325.36 8
-8 -2 3 50288 2218.81 1
8 2 3 49578.4 2197.39 2
-2 -8 3 46432.1 1755.83 1
2 8 -3 48988.5 2185.45 7
-2 8 3 43809.9 1917.99 7
-8 2 3 47587.2 2137.56 1
2 -8 3 45849.4 1561.14 9
-8 2 4 9933.94 1046.03 1
-2 -8 4 8665.56 773.808 9
8 -2 4 7721.57 964.786 2
8 2 4 8963.24 1009.74 2
-2 8 4 10151.9 1037.57 1
8 -2 -4 10583.8 1152.82 3
2 -8 -4 8096.11 882.244 3
8 2 -4 11111.9 1144.49 3
-2 -8 4 9220.29 820.825 1
-2 8 4 9388.13 1058.51 8
2 8 4 10463.8 1132.72 8
-8 -2 -4 9471.2 975.964 9
-8 -2 4 9266.1 1009.79 1
-2 8 -4 9042.73 1033.18 7
2 8 -4 8910.37 995.772 7
-2 8 4 8738.7 861.791 7
-2 -8 -4 9196.87 1007.09 9
-2 -8 -5 5833.7 884.432 9
8 -2 -5 6198.14 964.126 3
-8 2 5 5461.45 843.92 1
2 -8 -5 4746.12 713.806 3
8 2 5 5807.36 865.234 2
-8 -2 -5 4818.52 694.981 9
8 -2 5 4942.23 817.659 2
-2 8 5 4519.56 774.867 1
8 2 -5 5122 859.917 3
-2 8 5 5201.23 857.603 8
2 8 -5 5148.51 788.292 7
2 8 5 4637.01 810.086 8
-8 -2 5 5045.78 829.032 1
-2 8 -5 5473.43 876.712 7
2 -8 -6 2635.62 578.084 3
-8 2 6 2916.65 681.238 1
-2 8 6 2761.01 699.556 1
-2 -8 -6 2432.2 602.334 9
8 2 -6 2511.36 636.597 3
-2 8 6 1827.24 615.026 8
8 -2 -6 2750.87 726.485 3
2 8 6 2886.81 724.679 8
2 8 -6 1969.18 533.528 7
-8 -2 6 2946.45 640.726 1
-2 8 -6 2176.47 595.664 7
2 8 7 -75.7676 358.421 8
-8 -2 7 352.793 455.571 1
-2 8 7 -113.608 290.422 1
-8 2 7 -571.858 553.182 1
-2 -8 -7 -160.899 313.916 9
8 2 -7 566.699 534.487 3
-2 8 7 271.872 357.729 8
8 -2 -7 -141.359 479.237 3
-2 8 -7 -15.3088 322.107 7
2 8 -7 281.714 383.792 7
2 -8 -8 50.0067 294.257 9
-2 -8 8 -404.071 320.82 4
-8 -2 8 -273.58 253.723 4
-8 2 8 -28.3147 221.377 4
-8 -2 8 -51.4913 327.99 1
8 2 8 -66.8174 256.045 5
-8 2 8 194.936 317.208 1
-2 8 8 559.369 345.684 4
-2 8 8 172.891 319.393 8
-8 2 -8 1.71277 322.818 7
2 -8 8 586.035 354.389 5
-2 8 8 747.695 461.74 1
8 -2 8 -121.972 267.512 5
8 2 -8 -930.954 581.903 3
-2 -8 -8 -512.143 435.559 9
2 8 8 297.816 375.974 8
-2 -8 8 290.112 363.681 5
-2 8 -8 390.11 403.025 7
8 -2 -8 514.457 489.333 3
2 -8 8 205.47 207.131 4
-8 -2 9 -512.028 530.403 1
-8 -2 9 308.435 238.603 4
-8 2 9 113.91 208.765 4
-2 -8 -9 603.162 330.155 9
-2 -8 9 599.397 361.617 5
-2 8 9 6.74477 210.243 4
8 2 -9 284.879 396.151 3
2 -8 9 237.3 239.75 4
8 -2 9 178.865 262.923 5
8 2 9 565.153 328.198 5
-2 8 9 -116.642 458.642 1
2 -8 -9 271.775 385.413 9
2 -8 9 834.856 457.59 5
-8 2 9 599.878 421.1 1
2 8 9 -223.407 624.157 8
-2 8 9 835.826 535.42 8
8 -2 -9 296.806 333.158 3
-8 2 -9 595.123 579.332 7
-2 -8 9 63.4658 215.157 4
-2 -8 10 2658.28 660.368 5
-8 -2 10 2697.91 555.312 4
-2 -8 10 2828.84 618.212 4
-8 2 10 2549.28 562.139 4
8 -2 10 2234.96 582.591 5
-2 8 10 3166.33 659.765 4
2 8 10 1428.43 729.66 8
-8 2 10 2557.86 841.046 1
8 2 -10 2600.42 847.853 3
8 2 10 3362.12 696.881 5
-8 -2 10 3875.29 1014.67 1
2 -8 10 2451.74 619.996 5
-2 8 10 2669.13 910.441 8
-2 8 10 2084.04 693.184 1
8 -2 -10 2265.78 785.425 3
2 -8 10 2444.86 566.243 4
2 -8 11 1136.51 455.267 5
-8 -2 11 1464.44 423.676 4
8 -2 11 1475.97 462.154 5
-8 2 11 1668.02 464.276 4
8 2 11 1081.28 445.154 5
-2 8 11 1297.01 455.15 4
-2 -8 11 1162.46 448.627 5
2 -8 11 1137.91 419.163 4
-2 -8 11 1268.99 448.148 4
-8 -2 12 1609.14 434.945 4
-2 8 12 1621.15 461.909 4
8 2 12 2186.38 569.461 5
2 -8 12 1650.03 462.316 4
8 -2 12 1992.4 556.164 5
2 -8 12 2011.05 549.155 5
-2 -8 12 1689.6 486.813 5
-8 2 12 1933.49 476.589 4
-2 -8 12 2352.72 517.991 4
-8 -2 13 170.047 210.996 4
-2 8 13 753.114 376.879 4
8 2 13 -62.9603 266.932 5
-2 -8 13 -62.0032 209.812 4
-2 -8 13 26.5115 211.04 5
-8 2 13 7.78533 208.391 4
8 -2 13 263.296 280.049 5
2 -8 13 428.883 314.683 5
-8 -2 14 -308.49 258.348 4
-8 2 14 80.7204 166.713 4
2 -8 14 120.015 192.074 5
8 -2 14 4.36441 196.837 5
-2 8 14 -135.039 198.282 4
-2 -8 14 98.1765 171.477 5
-8 2 15 381.735 183.069 4
2 -8 15 -1.51087 139.083 5
8 -2 15 -57.5885 163.396 5
-2 8 15 29.3403 141.372 4
-8 -2 15 -236.051 182.971 4
3 8 0 -128.373 235.96 7
8 -3 0 -98.654 253.262 3
8 3 0 73.9706 235.665 3
-8 -3 0 -203.014 269.637 9
-8 3 0 245.154 196.997 1
-3 -8 0 60.3847 255.245 9
3 -8 0 -50.8988 281.699 3
-3 8 0 124.363 277.573 7
8 3 1 35264.3 1400.89 3
-8 3 -1 31321.3 1359.13 1
8 -3 1 33563.9 1757.88 2
8 3 1 33164.1 1740.7 2
-3 -8 1 31348.4 1596.49 9
-8 3 1 32802.5 1563.46 1
8 -3 1 34627.1 1707.42 3
3 -8 -1 31711.4 1677.39 3
-3 8 1 31355.5 1337.47 1
8 3 -1 32065 1549.68 3
3 8 -1 31353.3 1677.33 7
-3 8 1 33394.6 1678.87 7
-3 -8 -1 32197.7 1638.54 9
8 -3 -1 34632.3 1779.71 3
-8 -3 -1 31407 1609.78 9
-8 -3 1 28767 1601.68 9
-3 8 -1 31901.7 1714.08 7
3 8 1 30804.9 1654.81 7
-3 8 2 5708.8 800.241 8
8 -3 -2 6887.32 834.775 3
3 -8 -2 7146.8 832.648 3
8 3 2 7233.45 849.493 2
-8 -3 -2 5353.15 703.213 9
-3 8 2 6012.38 702.011 1
-8 3 2 6786.28 675.706 7
-8 -3 2 5791.19 784.54 9
3 8 2 5510.22 756.157 8
-8 -3 2 5745.13 743.336 1
3 -8 2 6398.92 647.605 9
-3 -8 -2 7160.04 836.64 9
-3 -8 2 6700.95 739.081 9
8 -3 2 6947.1 833.367 2
3 8 2 5858.64 790.879 7
8 -3 2 6226.66 729.47 3
-8 3 -2 6216.11 583.684 1
-3 8 -2 5926.19 784.186 7
-3 8 2 6833.27 790.937 7
3 8 -2 6041.18 768.757 7
-8 3 2 6977.5 782.383 1
8 3 -2 6678.78 775.127 3
-3 -8 -3 -219.313 374.487 9
3 -8 -3 -79.5817 310.805 3
3 8 3 171.901 299.895 8
-8 -3 3 -175.195 382.132 1
8 -3 3 -384.382 298.746 3
8 3 3 423.86 269.812 2
-8 -3 3 504.791 351.062 9
8 3 -3 26.7154 278.733 3
-3 8 3 237.912 287.407 8
-3 8 -3 227.073 304.432 7
-3 -8 3 -141.051 232.647 1
-3 -8 3 319.205 183.502 9
-8 -3 -3 534.712 272.564 9
-3 8 3 268.196 231.928 7
8 -3 3 416.162 301.676 2
-8 3 3 36.4199 319.42 1
-3 8 3 275.357 243.238 1
8 -3 -3 17.5681 390.375 3
3 8 -3 277.376 274.49 7
-3 8 4 573.018 207.029 7
3 -8 -4 910.874 339.147 3
-3 -8 4 215.905 187.97 9
-8 3 4 1107.48 410.185 1
8 -3 4 859.113 367.65 2
-3 -8 -4 340.724 255.99 9
-8 -3 4 684.691 307.423 1
-3 -8 4 681.886 318.808 1
-8 -3 -4 880.05 364.52 9
8 3 4 675.895 351.55 2
8 3 -4 1285.97 487.048 3
-3 8 4 249.315 258.462 8
8 3 4 423.766 278.344 8
-8 3 4 567.153 244.639 8
3 8 -4 362.364 295.421 7
8 -3 -4 487.011 348.194 3
-3 8 -4 620.699 345.226 7
3 8 4 1134.78 468.007 8
-3 8 4 565.315 252.557 1
3 8 5 1592.77 496.431 8
3 -8 -5 1256.13 422.381 3
-3 -8 5 1431 401.712 1
8 3 5 2227.33 602.928 2
-3 8 5 1415.42 438.322 1
-3 8 5 2173.34 629.746 8
-3 -8 -5 2063.35 564.738 9
-8 -3 -5 1295.23 404.163 9
8 -3 5 1577.23 465.343 2
8 3 -5 1312 523.594 3
-3 8 -5 1204.98 491.676 7
-8 3 5 2071.17 607.964 1
-8 -3 5 1237.2 396.731 1
8 3 5 1144.2 430.438 8
8 -3 -5 2086.04 637.047 3
3 8 -5 1454.45 470.604 7
3 -8 -6 468.29 314.817 3
-3 -8 -6 586.499 371.589 9
-8 -3 -6 114.071 249.626 9
3 8 6 142.6 359.291 8
-8 3 6 -36.0914 266.263 1
-8 -3 6 284.697 424.683 1
8 3 -6 -255.555 445.728 3
3 8 -6 322.982 230.996 7
-3 8 6 -264.532 369.927 8
8 -3 -6 648.064 452.53 3
-3 8 -6 494.528 385.422 7
-3 8 6 1040.49 427.311 1
3 -8 -7 -193.179 247.325 3
-8 -3 7 -172.182 325.404 1
-3 -8 -7 -481.017 435.67 9
-3 8 7 -352.646 507.66 1
-8 3 7 -266.045 396.332 1
3 -8 7 -84.4019 183.083 4
8 3 7 96.2164 206.545 5
-8 3 -7 -98.9339 456.667 7
8 3 -7 -549.604 502.497 3
3 -8 7 140.424 184.82 5
3 8 7 -1137.21 546.752 8
-3 8 7 -473.76 500.218 8
8 -3 -7 179.744 316.601 3
-3 8 -7 -575.374 585.906 7
3 8 -7 6.52411 264.956 7
3 8 8 2222.07 774.668 8
-8 -3 8 2004.27 429.464 4
-3 -8 -8 969.648 445.463 9
-8 -3 8 1458.17 568.475 1
-8 3 8 2592.68 502.915 4
-3 8 8 1817.15 589.048 1
-3 8 8 2132.26 510.294 4
-3 8 -8 1941.75 643.424 7
-8 3 8 1666.35 580.557 1
8 3 8 1766.48 466.723 5
8 -3 8 1749.5 483.328 5
8 3 -8 914.913 390.156 3
3 -8 8 2462.98 571.478 5
8 -3 -8 1832.08 557.783 3
-3 8 8 1848.51 744.319 8
-3 -8 8 2439.78 573.444 5
-8 3 -8 2294.26 659.867 7
3 -8 8 2353.02 534.474 4
-3 -8 8 2640.97 541.063 4
-3 -8 9 487.689 283.243 4
-8 -3 9 426.676 256.862 4
8 3 9 788.581 397.855 5
-8 3 9 554.817 279.795 4
3 -8 9 269.071 284.237 4
-3 8 9 861.975 361.525 4
-3 8 -9 541.498 389.811 7
-8 -3 9 979.691 604.235 1
8 3 -9 813.203 410.771 3
-3 8 9 -20.1062 313.959 1
3 -8 -9 -43.7341 335.083 9
8 -3 9 804.516 416.218 5
3 -8 9 959.082 425.851 5
-3 -8 9 574.066 297.441 5
3 8 9 898.35 565.35 8
-3 8 9 -21.8676 452.108 8
-8 3 -9 461.508 385.513 7
8 -3 -9 333.278 346.848 3
-8 3 9 115.415 346.596 1
3 -8 10 101.665 280.597 4
-8 -3 10 -23.1976 226.074 4
-8 3 10 -52.2306 231.049 4
-3 8 10 29.1896 226.627 4
3 -8 10 187.358 287.649 5
8 3 10 -116.514 306.692 5
8 -3 10 -43.8226 230.015 5
-3 -8 10 198.947 254.413 5
-3 -8 10 473.487 272.281 4
-3 -8 11 634.342 346.46 4
8 -3 11 1278.16 442.52 5
-8 3 11 1200.69 442.307 4
-3 8 11 855.138 385.46 4
-3 -8 11 1186.25 418.641 5
8 3 11 1019.28 441.473 5
3 -8 11 1092.7 410.74 4
3 -8 11 1469.81 500.643 5
-8 -3 11 1557.51 448.934 4
-8 -3 12 -253.569 266.8 4
-8 3 12 132.829 225.526 4
-3 8 12 -365.149 268.108 4
8 -3 12 291.16 275.064 5
-3 -8 12 286.893 228.642 5
8 3 12 19.4783 214.613 5
3 -8 12 209.735 317.796 5
-3 -8 12 -145.853 249.263 4
-8 3 13 152.557 191.974 4
-3 8 13 592.309 290.316 4
3 -8 13 433.428 349.214 5
-8 -3 13 -199.152 232.956 4
8 -3 13 167.477 256.441 5
-3 -8 13 328.332 311.01 5
-3 -8 13 266.185 276.318 4
-8 3 14 631.49 243.393 4
-3 -8 14 658.992 283.668 5
-3 8 14 1053.41 309.972 4
8 -3 14 236.051 251.946 5
3 -8 14 546.136 282.187 5
-8 -3 14 240.643 178.057 4
-3 8 15 56.3596 130.096 4
-8 -3 15 92.5798 151.219 4
8 -3 15 -171.041 157.835 5
3 -8 15 -143.268 181.577 5
-8 3 15 41.1353 136.625 4
-8 4 0 2874.5 641.381 7
8 -4 0 2263.2 657.689 3
-4 -8 0 2223.89 499.047 9
4 8 0 1580.22 434.561 7
8 4 0 1703.24 349.611 3
-8 -4 0 2218.71 490.683 9
-8 4 0 3149.03 646.78 1
-4 8 0 2087.25 606.449 7
-8 4 1 1847.05 437.212 7
8 -4 1 1940.22 462.843 3
4 -8 1 2159.02 515.039 3
8 4 1 7636.2 926.641 2
8 -4 1 1684.41 443.392 2
8 4 1 4848.33 585.975 3
8 4 -1 6352.12 743.273 3
-4 -8 -1 7514.47 911.609 9
-4 -8 1 6977.81 895.791 9
-8 -4 -1 8061.9 854.512 9
-8 -4 1 6595.85 869.332 9
-8 4 1 2053.07 425.383 1
4 8 1 8289.7 985.249 8
-4 8 1 1863.55 380.538 1
4 8 1 5803.48 862.703 7
4 8 -1 7358.96 888.467 7
-4 8 -1 1455.25 361.348 7
-4 8 1 2014.21 494.677 7
4 -8 -1 2023.58 473.647 3
8 -4 -1 1740.1 454.553 3
-8 4 -1 1825.53 342.047 1
4 8 -2 297.739 316.611 7
4 8 2 -34.2173 300.584 7
-8 -4 -2 35.2665 277.273 9
8 -4 2 336.854 417.225 3
-4 8 -2 493.478 491.373 7
4 -8 -2 4775.76 857.073 3
-4 8 2 2764.46 632.16 1
-8 4 2 307.444 325.107 7
-8 -4 2 -198.373 335.793 1
-4 8 2 5014.7 862.664 8
8 -4 2 1670.58 638.324 2
8 4 2 98.6254 217.138 2
4 8 2 69.4993 281.741 8
-4 -8 2 36.821 221.637 9
8 -4 -2 1547.55 809.894 3
-8 -4 2 133.681 260.584 9
8 4 -2 -20.2154 251.114 3
-8 4 2 1381.97 772.237 1
-4 -8 -2 85.0507 291.451 9
-4 8 2 1200.91 628.26 7
4 -8 -3 2545.53 545.081 3
-8 4 3 4284 693.026 1
8 -4 3 2210.14 490.123 3
-8 -4 3 6068.14 840.25 9
-8 -4 -3 4188.6 805.489 9
8 -4 -3 3161.78 644.265 3
-4 -8 3 5678.05 733.406 9
8 4 -3 5060.08 823.539 3
-4 8 3 2451.93 467.268 7
-4 8 3 3232.19 559.473 1
8 -4 3 2744.28 582.063 2
-4 -8 -3 5160.45 795.141 9
-4 -8 3 4832.99 679.883 1
8 4 3 3371.67 693.901 2
-8 -4 3 5515.2 821.821 1
4 8 3 4831.9 842.479 8
-4 8 3 2980.03 605.116 8
8 4 3 2835.67 473.372 8
-8 4 3 3309.94 483.537 8
4 8 -3 4603.84 759.287 7
-4 8 -3 2977.86 635.943 7
-8 -4 4 5956.92 874.527 9
-4 8 4 5532.27 766.377 1
-4 -8 4 4729.17 673.612 9
8 4 4 5778.24 870.126 2
-8 -4 -4 5189.05 775.527 9
8 4 -4 6090.5 891.898 3
-8 -4 4 6164.64 862.804 1
-4 -8 -4 5371.06 819.133 9
4 -8 -4 5487.37 819.057 3
8 -4 4 5432.9 821.819 2
-4 -8 4 5135.1 714.964 1
8 4 4 4264.15 631.339 8
-8 4 4 5255.56 714.889 8
-8 4 4 5210.8 816.125 1
-4 8 4 4993.62 824.679 8
4 8 4 6071.65 917.637 8
4 8 -4 5313.72 803.175 7
8 -4 -4 5279.86 825.985 3
-4 8 -4 5300.55 830.926 7
4 -8 -5 744.713 400.861 3
-4 8 -5 54.1325 279.069 7
-8 4 5 886.497 399.091 8
-4 8 5 944.932 445.039 1
-8 4 5 1261.1 547.086 1
8 -4 5 636.642 378.417 2
8 4 5 605.709 351.346 2
-8 -4 -5 122.981 229.065 9
-4 -8 -5 -112.894 289.862 9
-4 -8 5 368.681 217.662 1
8 4 -5 251.304 360.164 3
-4 8 5 1185.74 523.046 8
4 8 5 96.6348 327.807 8
-8 -4 5 522.713 388.514 1
8 -4 -5 1237.83 619.786 3
-8 4 -5 104.544 333.27 7
8 4 5 149.679 211.028 8
4 8 -5 156.644 290.774 7
4 -8 -6 -241.604 310.731 3
4 8 -6 905.156 487.664 7
-8 4 6 21.37 298.568 1
-4 -8 -6 2251.7 644.747 9
-8 4 -6 26.7233 353.454 7
-4 8 -6 54.3344 374.738 7
-8 -4 -6 765.985 479.445 9
-8 -4 6 2249.92 742.497 1
-8 4 6 243.607 296.02 8
8 4 -6 1657.98 701.219 3
-4 8 6 -37.6566 317.776 8
4 8 6 1468.25 641.477 8
-4 8 6 315.488 340.371 1
8 4 6 273.337 250.062 8
8 -4 -6 -200.052 373.453 3
-4 -8 6 1235.16 497.297 1
-8 -4 7 283.341 314.885 1
8 -4 7 561.212 292.094 5
8 4 -7 988.223 329.989 3
4 8 7 780.844 500.398 8
-4 8 7 1214.66 552.629 1
8 4 7 905.335 357.575 5
-8 4 7 1317.87 366.128 4
-8 4 7 1084.91 512.377 1
-4 8 7 1255.72 537.651 8
-4 -8 -7 514.033 318.867 9
4 -8 7 868.555 357.637 5
8 -4 -7 597.371 435.929 3
4 -8 7 680.236 349.116 4
-4 8 -7 1984.25 656.896 7
-8 4 -7 1020.38 570.598 7
4 -8 -7 931.031 426.706 3
-4 -8 7 650.673 240.238 4
4 -8 8 97.0446 289.868 5
-8 4 -8 515.96 412.883 7
-4 8 8 -149.899 363.541 1
-8 -4 8 558.74 313.323 4
8 4 8 713.591 347.597 5
-8 -4 8 674.14 427.664 1
-4 8 -8 370.429 434.847 7
-8 4 8 540.706 311.132 4
8 -4 8 260.998 285.71 5
-4 8 8 631.811 326.19 4
-4 -8 -8 127.584 342.306 9
4 8 8 125.162 348.135 8
4 -8 8 -120.866 253.936 4
-4 8 8 378.554 385.741 8
-8 4 8 -153.348 368.789 1
-4 -8 8 451.337 321.058 5
8 -4 -8 42.1682 371.587 3
8 4 -8 618.175 475.851 3
-4 -8 8 616.408 325.97 4
-8 -4 9 1620.41 425.831 4
-8 4 9 1132.11 577.674 1
8 4 9 1302.81 435.663 5
-8 4 9 1666.54 440.266 4
-4 8 9 1993.5 690.09 1
-4 8 9 1682.9 529.608 4
-8 -4 9 2026.92 680.699 1
8 -4 9 1539.39 450.583 5
-8 4 -9 205.205 428.015 7
8 4 -9 731.301 470.318 3
4 -8 9 2374.66 613.306 5
4 8 9 1121.23 690.344 8
-4 8 9 1248.55 652.776 8
-4 -8 9 1070 382.59 5
4 -8 -9 1535.67 600.512 9
4 -8 9 1435.92 443.488 4
8 -4 -9 932.992 535.831 3
-4 8 -9 2455.27 769.407 7
-4 -8 9 1929.36 490.724 4
-4 -8 10 192.394 226.973 4
8 -4 10 -71.4808 243.334 5
8 4 10 -291.209 304.617 5
-8 4 10 -170.219 258.952 4
-4 8 10 98.451 220.99 4
-8 -4 10 -411.15 274.15 4
4 -8 10 3.13923 292.76 5
-4 -8 10 -471.664 359.48 5
8 4 11 315.051 289.87 5
-8 4 11 825.92 338.766 4
-4 -8 11 874.205 353.452 5
-4 8 11 708.53 335.42 4
-4 -8 11 560.509 312.745 4
8 -4 11 860.702 406.852 5
4 -8 11 841.78 447.697 5
-8 -4 11 799.006 346.474 4
-8 4 12 415.145 289.578 4
-4 8 12 319.574 298.242 4
4 -8 12 273.366 255.757 5
-4 -8 12 -29.6826 232.432 4
8 -4 12 211.13 298.008 5
-4 -8 12 75.732 235.794 5
-8 -4 12 758.401 318.632 4
-8 -4 13 133.642 213.016 4
-8 4 13 -78.8353 235.517 4
-4 8 13 -65.834 217.31 4
8 -4 13 -0.82943 239.642 5
-4 -8 13 -41.1911 213.496 5
4 -8 13 -78.1418 257.085 5
-4 -8 13 216.117 249.327 4
-8 4 14 149.993 168.159 4
-4 8 14 -112.837 163.036 4
4 -8 14 -273.805 233.249 5
8 -4 14 90.8124 229.241 5
-8 -4 14 -44.3281 166.136 4
-8 4 15 83.7816 150.966 4
-4 8 15 357.393 177.367 4
8 -4 15 -79.65 196.117 5
4 -8 15 -214.462 207.153 5
-8 -4 15 432.341 206.366 4
8 5 0 -14.0468 185.512 3
5 8 0 -494.373 373.924 7
-5 -8 0 -53.2116 303.806 9
8 -5 0 450.178 343.251 3
5 -8 0 -0.83233 247.646 3
-8 5 0 -33.9594 183.205 1
8 5 0 -262.309 320.902 2
8 -5 0 -121.913 261.223 2
-8 -5 0 349.909 295.643 9
-5 8 0 -366.782 277.901 7
-8 5 0 -8.94408 162.633 8
-8 5 0 147.673 284.388 7
-5 -8 1 13619.9 1147.4 9
5 -8 1 13856 1232.97 3
8 -5 1 12348.7 1087.98 2
8 5 1 13767 1133.92 2
-8 -5 -1 12411.6 1108.06 9
8 -5 -1 12321.1 1153.93 3
5 8 1 13256.8 1162.09 8
-8 -5 1 12092.5 1079.31 9
-8 5 1 9781.65 758.858 8
-5 8 -1 13199.9 1179.19 7
-8 5 -1 15595.5 1336.16 7
8 5 -1 12370.6 1013.09 3
-5 -8 -1 11624.1 1087.51 9
8 -5 1 12780.1 1149.26 3
-5 8 1 12508.2 1124.4 8
5 8 -1 11234.9 775.734 2
-8 5 1 12293.5 1022.33 7
-5 8 1 13531.1 922.425 1
5 8 1 12222.8 1124.64 7
5 8 -1 12484.5 1122.07 7
5 -8 -1 12708 1171.43 3
-8 5 1 12314.5 989.577 1
-5 8 1 12175.1 1082.42 7
-8 5 2 12161 1037.7 1
8 -5 2 12018.3 1114.84 3
8 -5 -2 13112.7 1226.38 3
5 -8 -2 11140.3 1106.78 3
-5 8 2 11580.1 959.331 1
-8 -5 -2 12100.6 1138.04 9
8 -5 2 11514.9 1070 2
8 5 2 11916.3 1067.75 2
-8 5 2 11319.5 920.548 7
-5 8 -2 12112.1 1167.72 7
8 5 -2 12112.3 1073.24 3
-5 8 2 10549.3 1098.57 8
-5 -8 2 11689.4 1086.48 9
-8 -5 2 10105.8 1022.47 9
5 8 2 12171.8 1131.36 8
-8 5 2 10054.9 834.017 8
-8 5 -2 13279.3 1308.01 7
-5 -8 -2 11170.3 1094.38 9
-5 8 2 10996.9 996.54 7
5 8 -2 11016.9 1101 7
5 8 -3 1498.35 453.094 7
5 8 3 1296.2 403.621 8
5 -8 -3 1640.89 492.221 3
-5 -8 3 1583.98 421.446 9
-5 8 3 1431.8 391.778 1
-5 -8 -3 1231.03 414.888 9
-8 5 3 1721.18 396.914 8
-8 -5 3 1610.5 426.286 9
-8 -5 3 2260.93 553.203 1
-5 -8 3 1093.94 364.812 1
8 -5 -3 1463.46 523.573 3
-8 -5 -3 1115.82 382.243 9
8 5 -3 1311.74 477.523 3
-8 5 -3 2302.05 627.722 7
8 5 3 1263.12 364.102 8
8 5 3 1049.56 321.933 2
-5 8 3 945.621 339.501 8
-5 8 -3 1617.55 527.335 7
8 -5 3 1403.18 426.926 2
-8 5 3 1651.96 454.517 1
-5 8 3 1173.07 367.824 7
5 -8 -4 615.301 336.895 3
-5 -8 -4 563.979 347.122 9
5 8 4 586.749 289.022 8
-8 -5 4 388.665 331.578 1
-5 -8 4 311.364 272.357 9
-8 5 4 771.318 444.419 1
-5 8 4 734.865 307.111 1
-5 8 4 513.423 353.754 8
-8 -5 -4 496.555 367.501 9
8 5 4 311.3 217.804 8
-5 8 -4 735.768 424.225 7
-5 -8 4 139.057 228.487 1
8 5 4 132.712 306.089 2
5 8 -4 1135.01 421.365 7
-8 -5 4 309.22 288.725 9
8 5 -4 256.191 375.802 3
-8 5 4 510.353 296.283 8
8 -5 4 658.346 332.103 2
-8 5 -4 478.799 429.154 7
8 -5 -4 806.515 467.223 3
5 8 -5 882.757 419.033 7
5 -8 -5 874.766 306.149 3
8 -5 -5 1356.79 555.117 3
-8 5 5 1397.69 511.747 1
8 5 -5 1510.57 555.97 3
-5 8 5 702.047 335.305 1
-8 -5 -5 1056.75 383.175 9
-5 -8 5 1278.2 427.753 1
8 5 5 988.614 394.052 8
-5 -8 5 877.915 329.861 9
-5 -8 -5 764.13 349.251 9
-8 -5 5 1825.41 568.747 1
5 8 5 728.429 519.842 8
-5 8 5 455.022 322.489 8
-8 5 -5 789.829 552.463 7
-8 5 5 1255.45 428.392 8
-5 8 -5 2308.91 657.096 7
5 -8 -6 98.5388 290.458 3
5 8 -6 266.499 286.028 7
-5 8 6 -269.522 292.04 1
-8 -5 -6 191.188 263.012 9
5 8 6 347.93 331.376 8
-8 5 6 100.255 268.524 1
8 5 -6 -333.675 412.439 3
-5 -8 -6 -69.6556 279.412 9
-8 -5 6 368.824 386.349 1
-8 5 -6 229.265 339.267 7
8 5 6 -198.939 354.852 8
-8 5 6 86.9664 332.363 8
-5 -8 6 -451.085 412.14 1
8 -5 -6 398.381 379.286 3
-5 8 -6 58.3487 338.91 7
-5 8 6 -582.811 301.133 8
5 -8 -7 -9.17773 299.743 3
8 5 7 13.73 283.563 5
-5 -8 -7 17.5884 250.534 9
-8 -5 7 -395.3 436.994 1
5 8 7 32.1914 347.764 8
8 -5 -7 -226.554 477.382 3
-8 5 7 11.0836 201.932 4
8 -5 7 -266.335 328.35 5
5 -8 7 -258.206 301.358 5
-5 -8 7 291.85 181.258 4
8 5 -7 -416.418 531.365 3
-5 8 7 -84.1812 309.791 1
-8 5 7 255.69 329.287 1
-5 8 7 45.8836 371.102 8
8 5 7 337.023 351.047 8
-8 5 -7 329.19 337.71 7
-5 8 -7 -228.911 304.866 7
-8 -5 8 -44.3629 329.069 4
-5 8 8 114.026 382.418 1
8 -5 8 -299.301 337.558 5
-8 5 8 -47.2772 208.831 4
8 5 8 -684.389 379.282 5
-5 8 8 123.842 243.123 4
-5 -8 -8 -135.248 459.596 9
-8 5 -8 17.9863 351.415 7
-5 8 -8 209.648 343.437 7
5 -8 8 -57.716 229.675 5
5 8 8 -158.456 427.88 8
-5 8 8 110.899 514.632 8
8 5 -8 160.29 369.759 3
-5 -8 8 226.252 243.385 5
-8 -5 8 -392.081 476.686 1
8 -5 -8 -1377.1 599.932 3
-8 5 8 194.106 282.325 1
-5 -8 8 -76.8146 299.076 4
8 5 -9 -612.225 542.713 3
8 5 9 1196.76 435.277 5
-8 5 9 1414.27 589.166 1
-5 8 9 1396.93 577.303 1
8 -5 9 954.726 368.231 5
5 8 -9 204.415 413.777 3
8 -5 -9 1414.11 616.788 3
-5 8 9 1556.62 460.325 4
-8 -5 9 2972.02 874.479 1
-8 -5 9 753.43 229.692 4
-5 8 -9 2479.8 857.125 7
-8 5 9 1144.54 402.166 4
5 -8 9 1354.61 428.474 5
5 8 9 649.412 454.034 8
-5 8 9 539.849 501.79 8
-5 -8 9 1756.93 509.978 5
-8 5 -9 1417.03 730.395 7
-5 -8 9 1114.47 380.539 4
-8 -5 10 1151.66 378.604 4
8 -5 10 1950.59 565.062 5
-5 -8 10 1314.37 468.384 4
8 5 10 715.997 370.193 5
-5 8 10 988.592 405.546 4
5 -8 10 1249.52 510.561 5
-5 -8 10 881.818 422.736 5
-8 5 10 1296.55 420.778 4
5 -8 11 -327.245 353.838 5
-8 5 11 205.033 239.157 4
-5 8 11 402.8 312.332 4
-8 -5 11 18.5234 224.822 4
-5 -8 11 141.922 271.844 5
8 -5 11 -38.7768 277.039 5
-5 -8 11 -161.033 218.461 4
-5 -8 12 518.306 284.761 4
-8 -5 12 236.06 250.335 4
-8 5 12 -225.925 211.452 4
5 -8 12 274.576 263.737 5
8 -5 12 44.8525 219.259 5
-5 -8 12 -227.732 242.493 5
-5 8 12 112.225 211.411 4
-8 5 13 731.113 308.22 4
-5 8 13 231.22 183.847 4
8 -5 13 553.893 351.358 5
5 -8 13 448.473 330.459 5
-5 -8 13 -14.2061 186.829 4
-8 -5 13 543.051 283.958 4
-8 5 14 209.99 216.721 4
-5 8 14 126.905 175.483 4
5 -8 14 -99.2292 202.781 5
8 -5 14 287.892 261.498 5
-8 -5 14 119.889 153.847 4
-5 8 15 282.297 149.455 4
8 -5 15 171.685 155.176 5
5 -8 15 274.137 209.368 5
-8 5 15 120.797 121.904 4
-8 -5 15 -43.3954 120.977 4
8 -6 0 12256.8 1171.54 3
-8 -6 0 15710.8 1281.27 9
8 6 0 17117.3 1286.62 2
8 -6 0 11158.4 1053.38 2
6 8 0 15263.2 989.236 2
6 8 0 15726.9 1323.86 7
-6 -8 0 17347.7 1366.62 9
6 -8 0 11295.3 1124.75 3
-6 8 0 11153.8 1100.45 7
8 6 0 15110 1033.9 3
6 -8 0 10351.1 800.629 2
-8 6 0 9674.2 860.8 8
-8 6 0 12319 1140.56 7
-8 6 1 6190.07 741.523 1
8 -6 1 5958.39 866.192 3
6 8 -1 4863.22 575.177 2
6 -8 -1 6384.91 936.062 3
-6 8 1 5666.62 857.498 8
8 -6 1 5218.62 763.192 2
8 6 1 5422.8 721.881 2
-8 -6 -1 5870.17 814.064 9
6 -8 1 5027.26 633.115 2
6 8 -1 5717.97 811.084 7
6 8 1 5046.9 579.76 2
-8 -6 1 5224.05 758.592 9
6 -8 -1 5299.27 690.884 2
8 6 -1 5452.14 708.144 3
6 -8 1 6149.08 893.343 3
-6 -8 -1 5590.59 803.812 9
-6 -8 1 5488.01 773.082 9
8 -6 -1 6299.55 920.573 3
6 8 1 5400.86 733.969 8
-8 6 1 4891.76 693.115 8
-8 6 -1 5638 828.268 7
-8 6 1 5510.28 730.24 7
-6 8 -1 5201.99 828.912 7
-6 8 1 4339.08 676.926 7
8 -6 -2 302.288 399.955 3
6 -8 -2 -225.263 290.501 3
-6 -8 2 4397.81 739.794 9
8 -6 2 -327.292 360.521 3
6 -8 2 41.1997 178.786 2
8 -6 2 473.057 317.292 2
6 8 2 1973.21 451.634 2
-6 -8 -2 3097.82 722.794 9
8 6 2 2184.16 651.015 2
-8 6 -2 -121.803 289.843 7
-6 8 2 109.996 176.03 1
-8 6 2 -175.571 240.812 1
8 6 2 1884.39 489.341 8
-8 -6 -2 4151.87 729.317 9
-8 6 2 -89.303 226.71 8
-6 8 2 -318.505 291.048 8
8 6 -2 4001.07 670.311 3
6 8 2 3183.42 731.142 8
6 8 -2 4356.31 745.085 7
-8 -6 2 4561.82 752.113 9
-6 8 -2 -3.91725 258.586 7
-8 6 2 156.088 183.308 7
-6 8 2 102.408 231.058 7
-8 6 3 7674.96 939.26 1
8 6 -3 8739.56 1060.84 3
8 -6 -3 7161.33 1009.11 3
6 8 -3 8744 1042.76 7
-6 -8 3 7730.32 996.136 1
6 -8 -3 6776.17 962.978 3
-6 8 -3 6341.41 958.859 7
8 -6 3 6084.7 875.098 2
-6 -8 -3 7632.27 991.39 9
8 6 3 6386.86 852.838 2
-6 8 3 5971.05 932.594 8
-8 6 -3 6877.67 1049.64 7
-8 -6 -3 8530.67 1029.82 9
-6 -8 3 8610.04 1038.7 9
-8 -6 3 8370.87 1006.09 9
6 8 3 7015.49 938.841 8
-8 6 3 5587.63 767.237 8
8 6 3 6247.51 771.849 8
-8 -6 3 8458.31 1098.92 1
-6 8 3 7137.77 860.101 1
6 -8 -4 677.462 484.269 3
-6 8 -4 305.341 429.157 7
8 6 -4 1908.06 606.863 3
-6 -8 -4 1771.29 568.828 9
-8 6 4 235.612 244.627 8
-8 6 -4 -89.2262 424.559 7
8 -6 4 -30.8158 248.268 2
-6 8 4 -17.9195 322.997 1
8 6 4 246.74 258.906 8
8 6 4 350.746 452.594 2
-6 -8 4 1382.46 459.174 1
-8 -6 4 972.441 532.854 1
6 8 -4 981.782 476.216 7
-8 -6 -4 985.558 403.264 9
-8 -6 4 1366.54 491.603 9
-6 8 4 413.795 350.328 8
-6 -8 4 1503.62 508.167 9
6 8 4 771.225 404.998 8
-8 6 4 622.469 412.515 1
8 -6 -4 1152 549.492 3
6 -8 -5 194.397 307.885 3
6 8 -5 3353.64 733.562 7
-6 8 -5 459.726 461.746 7
-6 -8 -5 3973.06 791.297 9
-6 8 5 1158.57 451.898 1
-8 -6 -5 2062.97 801.164 9
-6 -8 5 4716.36 775.161 9
-8 -6 5 5195.07 899.891 9
8 6 -5 2898.82 925.816 3
-8 -6 5 4837.39 923.919 1
8 -6 -5 710.982 448.803 3
-8 6 5 534.229 340.383 1
6 8 5 1265.65 560.611 8
8 6 5 1216.37 485.955 8
-8 6 5 315.343 249.999 8
-6 -8 5 4632.22 937.654 1
-8 6 -5 607.473 447.523 7
-6 8 5 568.537 360.134 8
6 -8 -6 1179.11 618.586 3
-6 8 -6 710.979 512.404 7
8 6 -6 599.883 365.178 3
-8 -6 -6 182.729 371.293 9
-6 -8 -6 346.941 366.581 9
-6 8 6 2340.88 738.06 8
6 8 6 372.399 352.023 8
8 6 6 -327.627 361.872 8
-8 6 6 829.253 493.198 8
-8 6 6 1321.53 677.722 1
-8 -6 6 148.259 253.393 1
-6 8 6 1279.62 567.009 1
-6 -8 6 125.689 349.354 1
-8 6 -6 557.488 446.039 7
8 -6 -6 2255.06 778.397 3
-8 -6 7 238.676 473.2 1
-6 -8 -7 889.36 663.586 9
-8 6 7 483.421 391.227 1
-8 6 -7 105.2 355.797 7
-8 6 7 214.901 257.428 4
-6 8 7 74.4697 384.53 1
6 -8 -7 303.367 287.795 3
-8 -6 -7 -107.834 485.27 9
8 6 -7 -68.9428 633.992 3
6 -8 7 -142.306 217.383 5
6 8 7 1025.58 557.415 8
-6 8 7 225.637 348.104 8
8 -6 7 -82.8099 347.326 5
-6 -8 7 828.475 473.725 1
-6 8 -7 4.98924 429.335 7
8 -6 -7 620.044 487.586 3
-6 -8 7 1416.84 403.394 4
6 -8 -8 604.797 335.218 3
-6 8 8 344.801 557.612 8
-6 8 -8 769.646 654.107 7
-8 -6 8 997.393 487.359 1
6 8 -8 -743.162 555.673 3
6 -8 8 -263.529 400.021 5
-8 -6 8 487.69 200.367 4
-8 6 8 645.468 313.112 4
8 -6 8 377.762 235.177 5
-8 6 8 403.253 376.621 1
-6 -8 8 267.096 221.202 4
-6 8 8 485.042 407.224 1
-6 8 8 1362.9 471.308 4
-6 -8 -8 341.775 312.405 9
8 -6 -8 798.99 591.022 3
8 6 -8 -203.672 430.248 3
-6 -8 8 134.762 280.744 5
6 8 8 312.036 395.354 8
-8 6 -8 1228.79 650.854 7
-6 8 9 -539.164 399.013 1
-8 -6 9 484.92 269.756 4
-8 6 -9 312.599 355.848 7
8 6 -9 433.721 401.434 3
6 -8 9 -183.148 352.039 5
8 -6 9 140.274 259.889 5
6 8 -9 380.048 330.644 3
-8 6 9 -509.333 444.688 1
-8 6 9 478.324 266.025 4
6 8 9 -2.01884 343.691 8
-6 8 9 388.088 246.175 4
-6 -8 9 65.9729 220.667 4
-6 8 9 -370.264 374.446 8
-6 -8 9 574.363 369.341 5
-8 -6 9 654.742 704.129 1
-6 8 -9 714.555 299.972 7
8 -6 -9 249.009 300.962 3
8 -6 10 5361.48 851.079 5
6 -8 10 5326.3 870.168 5
-6 -8 10 5505.3 876.174 5
-6 -8 10 5882.46 808.989 4
-8 -6 10 6432.58 812.886 4
-8 6 10 6427.32 858.201 4
-6 8 10 6474.02 873.212 4
-8 -6 11 527.19 318.874 4
-6 -8 11 115.414 260.944 4
-8 6 11 589.722 373.737 4
-6 8 11 303.315 241.836 4
6 -8 11 1002.45 451.15 5
-6 -8 11 996.406 394.813 5
8 -6 11 684.299 352.276 5
8 -6 12 -428.523 351.556 5
6 -8 12 -153.533 271.216 5
-8 6 12 -144.35 292.934 4
-6 8 12 -259.437 259.924 4
-6 -8 12 -30.7067 232.677 4
-8 -6 12 6.5729 220.194 4
-6 8 13 -46.7782 212.886 4
8 -6 13 12.3896 203.489 5
-8 6 13 147.72 224.845 4
6 -8 13 -145.609 261.011 5
-6 -8 13 -479.922 306.928 4
-8 -6 13 -186.251 232.643 4
-6 8 14 8.54888 163.968 4
8 -6 14 -136.897 194.181 5
6 -8 14 -75.4876 176.271 5
-8 -6 14 -157.029 147.129 4
-8 6 14 165.581 212.906 4
-8 6 15 199.986 166.255 4
-6 8 15 411.866 168.609 4
8 -6 15 111.026 162.99 5
6 -8 15 363.282 205.439 5
-8 7 0 -250.178 336.141 7
8 -7 0 186.711 279.412 3
7 -8 0 246.834 363.627 3
7 8 0 -181.01 261.256 8
-7 8 0 -113.765 243.907 7
-7 -8 0 349.664 329.405 9
-8 7 0 -44.6715 227.671 8
8 7 0 -46.5424 202.269 2
8 -7 0 -186.754 216.639 2
7 -8 0 316.565 241.857 2
7 8 0 12.9279 154.928 2
8 7 0 97.4874 174.213 3
-8 -7 0 -282.595 400.218 9
8 -7 -1 -17.3091 269.295 3
7 -8 -1 28.8239 262.273 3
8 -7 1 -302.644 392.561 3
7 -8 1 240.48 300.121 3
8 7 -1 -12.5813 217.555 3
7 -8 1 251.143 216.982 2
-8 -7 1 679.673 351.725 9
7 8 -1 -157.71 188.043 2
-7 -8 1 -13.6659 231.506 9
-7 8 1 -40.7946 253.157 7
8 -7 1 -218.266 235.453 2
8 7 1 465.512 259.4 2
-8 7 1 346.226 232.44 8
-7 -8 -1 -305.31 302.301 9
7 8 1 170.086 237.898 2
-8 -7 -1 404.366 313.883 9
-7 8 -1 182.66 279.458 7
8 7 1 -204.013 176.421 8
-7 8 1 418.175 245.999 8
7 8 1 10.9886 255.715 8
-8 7 -1 635.922 332.432 7
-8 7 1 -259.639 277.294 7
7 -8 -1 -2.03169 171.202 2
8 -7 -2 162.057 276.383 3
7 -8 -2 -170.179 335.663 3
-8 -7 2 88.8447 289.048 9
8 -7 2 289.106 251.845 3
-7 8 2 257.858 310.518 7
-7 8 2 388.475 262.484 1
8 -7 2 80.0996 226.063 2
-7 8 2 -178.503 272.328 8
7 8 2 38.979 218.373 2
7 -8 2 -17.0334 205.18 2
-7 -8 -2 312.934 300.392 9
8 7 -2 142.88 207.158 3
-8 7 2 139.458 230.143 7
8 7 2 -14.6182 205.309 2
-8 -7 -2 -106.15 285.2 9
-7 -8 2 -403.43 299.006 9
-8 7 2 73.0281 194.599 8
7 8 -2 -554.527 399.865 7
-8 7 2 -164.503 231.1 1
7 8 2 -48.1426 274.291 8
8 7 2 67.5603 184.462 8
-8 7 -2 17.6518 352.809 7
-7 8 -2 -212.05 266.779 7
-8 7 3 979.288 361.212 1
7 8 -3 813.99 434.324 7
-8 7 -3 923.741 419.352 7
-8 -7 3 676.191 359.147 1
-7 8 3 392.126 255.982 1
-7 -8 -3 1276.04 478.898 9
8 -7 -3 1486.95 526.252 3
-8 7 3 720.69 342.88 8
8 7 3 1116.28 436.999 2
-7 -8 3 619.427 350.473 9
-7 -8 3 672.672 336.816 1
-8 -7 -3 649.882 391.472 9
8 -7 3 470.352 288.231 2
7 8 3 622.571 263.69 8
-8 -7 3 256.869 290.74 9
-7 8 3 399.21 249.417 8
8 7 3 789.146 328.758 8
-7 8 -3 768.497 457.392 7
7 -8 -3 558.138 321.338 3
7 -8 -4 1619.42 537.143 3
-8 7 4 379.098 208.211 8
-7 8 4 1242.18 478.123 1
8 7 -4 1395.57 491.646 3
7 8 4 854.107 324.175 8
-8 -7 -4 1151.47 415.206 9
-7 -8 4 862.442 364.245 1
-8 7 -4 1166.68 484.326 7
-8 -7 4 838.028 452.381 9
-8 -7 4 835.03 280.945 1
7 8 -4 697.223 329.667 7
-7 -8 -4 879.34 417.031 9
-7 -8 4 1103.88 492.75 9
-7 8 4 268.428 285.643 8
8 7 4 1031.41 414.302 8
-8 7 4 1168.76 461.441 1
-7 8 -4 330.314 378.686 7
8 -7 -4 1680.51 569.457 3
7 8 -5 385.06 294.238 7
-7 -8 -5 -17.6254 271.751 9
-7 8 5 610.901 452.494 8
-7 -8 5 48.2539 308.051 9
-7 8 5 74.04 358.862 1
8 7 -5 -174.295 282.236 3
-7 -8 5 -198.325 354.599 1
-8 -7 -5 303.379 358.616 9
-8 7 5 291.923 322.121 8
8 7 5 699.871 353.414 8
-8 -7 5 771.091 366.867 9
-8 -7 5 90.865 300.363 1
7 -8 -5 -306.109 435.397 3
-8 7 5 487.387 327.072 1
7 8 5 -196.256 369.451 8
-8 7 -5 1016.47 526.118 7
-7 8 -5 657.842 480.977 7
8 -7 -5 -161.279 313.853 3
-8 7 6 780.413 416.658 1
8 7 6 1345.52 592.294 8
8 -7 6 438.228 282.755 5
-7 -8 -6 2147.52 718.967 9
-8 -7 -6 641.598 419.004 9
7 8 6 158.528 372.561 8
-7 8 6 1075.62 498.146 1
8 -7 -6 596.642 290.379 6
7 -8 -6 776.013 318.795 6
8 7 -6 415.631 463.754 3
7 -8 6 389.316 272.594 5
-7 8 6 -651.434 425.644 8
-8 -7 6 1340.44 624.631 1
-7 -8 6 1416.53 589.904 1
-8 7 -6 930.734 634.434 7
-7 8 -6 1228.8 626.538 7
8 -7 -6 37.0614 336.96 3
7 -8 -6 395.29 398.152 3
-7 -8 7 652.237 390.107 1
8 -7 7 394.821 277.595 5
7 8 -7 543.455 468.304 3
-7 -8 7 269.637 211.219 4
7 8 7 553.419 394.984 8
8 -7 -7 670.848 316.038 6
7 -8 -7 840.455 325.855 6
-8 7 7 433.842 227.746 4
-7 8 7 -286.722 411.212 1
-8 -7 -7 466.424 443.094 9
-8 7 7 96.5628 296.998 1
-7 8 -7 1056.8 664.153 7
7 -8 7 528.644 349.872 5
8 7 -7 1248.15 590.288 3
-7 8 7 -510.069 615.437 8
-7 -8 -7 915.589 491.241 9
-8 7 -7 569.585 563.934 7
-8 -7 7 141.285 291.152 1
8 -7 -7 821.206 497.028 3
7 -8 -7 -86.329 405.403 3
7 -8 -8 3131.2 848.523 3
-8 -7 8 3534.03 611.417 4
-8 -7 8 3047.95 827.171 1
8 7 -8 2633.56 826.614 3
-8 7 8 1961.74 676.853 1
-7 8 8 4616.53 1004.29 1
-8 7 8 3383.56 645.649 4
7 -8 8 3645 677.971 5
8 -7 8 3300.99 666.612 5
7 8 -8 2584.17 727.55 3
7 8 8 2321.61 717.807 8
-7 8 8 3291.61 984.533 8
-8 -7 8 2618.96 542.696 5
-7 -8 8 4460.44 773.055 5
-8 7 -8 2642.57 902.533 7
-7 8 -8 3656.64 1059.84 7
8 -7 -8 2974.57 818.407 3
-7 8 8 3430.22 633.446 4
-7 -8 8 2839.15 555.416 4
-8 -7 9 2847.26 560.527 4
7 -8 9 3311.91 665.39 5
-8 7 9 3716.95 663.515 4
-7 8 9 2685.45 578.268 4
8 -7 9 2638.66 612.632 5
-7 -8 9 3402.76 667.33 5
-7 -8 9 3264.68 620.287 4
-8 7 10 576.863 274.618 4
-7 8 10 890.073 374.917 4
7 -8 10 314.987 317.045 5
-7 -8 10 397.349 327.146 5
8 -7 10 715.04 385.994 5
-8 -7 10 385.006 240.669 4
-7 -8 10 368.748 261.537 4
-8 7 11 -40.6541 198.253 4
8 -7 11 -206.856 288.048 5
-7 8 11 -140.784 288.534 4
-7 -8 11 -136.879 229.876 4
7 -8 11 -404.843 311.358 5
-8 -7 11 -685.156 314.536 4
8 -7 12 579.374 307.207 5
-8 7 12 232.389 233.448 4
-7 8 12 425.033 248.607 4
7 -8 12 -336.478 326.066 5
-8 -7 12 318.91 197.326 4
-7 -8 12 247.584 235.562 4
7 -8 13 385.796 323.095 5
-8 7 13 393.369 256.434 4
-7 8 13 10.9633 185.783 4
8 -7 13 78.0917 199.375 5
-7 -8 13 165.736 182.762 4
-8 -7 13 628.601 283.286 4
-8 7 14 349.587 220.834 4
-7 8 14 189.962 179.657 4
8 -7 14 187.022 238.409 5
7 -8 14 141.928 211.393 5
8 -8 0 84053.4 2792.07 2
8 8 0 99590.5 3024.09 2
8 -8 0 100286 3643.49 3
-8 8 0 74394.6 2747.58 8
-8 8 0 90135.2 3333.28 7
-8 -8 0 107932 3602.02 9
8 8 -1 56802.6 2322.46 2
8 -8 -1 43508.2 2057.66 2
8 -8 1 42240.4 1979.43 2
8 8 1 54431.1 2249.34 2
8 -8 -1 47322.3 2530.51 3
-8 8 1 33954.5 1877.48 8
-8 -8 -1 58120.9 2678.7 9
-8 -8 1 56188.9 2633.72 9
8 8 1 45698.2 2125.41 8
8 -8 1 44991.6 2466 3
-8 8 -1 46432.1 2485.24 7
-8 8 1 45790.9 2320.6 7
8 -8 2 15260.6 1458.76 3
8 -8 -2 13582.7 1424.16 3
8 -8 2 11622.2 1089.53 2
8 8 2 12722.4 1152.89 2
8 8 2 12613.3 1168.51 8
-8 -8 -2 13710.4 1370.67 9
-8 -8 2 14008.2 1359.05 9
-8 8 2 11456.5 1151.22 8
-8 8 -2 13170.9 1396.29 7
-8 8 3 3831.73 662.503 1
8 8 3 3022.7 606.095 2
8 -8 -3 3663.83 793.728 3
8 -8 3 2617.84 598.906 2
-8 -8 3 4497.35 909.112 1
-8 -8 -3 4584.52 888.403 9
-8 -8 3 5621.24 923.336 9
-8 8 3 2672.82 658.866 8
8 8 3 4774.61 790.773 8
-8 8 -3 3372.59 808.045 7
8 -8 -4 14.7567 289.748 3
-8 8 4 595.138 379.916 1
-8 -8 -4 640.817 663.073 9
-8 -8 4 826.768 557.22 1
8 8 4 787.271 415.564 8
-8 8 4 175.38 300.993 8
-8 8 -4 556.214 313.241 7
8 -8 -5 2500.81 749.46 3
-8 8 5 1920.07 643.571 1
-8 8 5 2679.5 693.584 8
-8 8 -5 2252.22 769.409 7
8 -8 -5 902.004 292.924 6
8 8 5 1757.76 621.081 8
-8 -8 -5 1822.96 642.554 9
8 8 -5 1430.15 603.588 3
-8 -8 5 2059.31 576.652 1
-8 -8 5 2277.72 659.136 9
8 -8 -6 3984.59 954.851 3
8 -8 6 1813.98 465.108 5
-8 8 6 2900.77 712.688 1
-8 -8 -6 3432.84 832.705 9
8 -8 -6 2459.34 489.477 6
8 8 -6 4629.22 1024.95 3
-8 -8 6 2953.97 761.381 1
-8 8 -6 2361.22 684.361 7
8 -8 -7 1441.84 638.475 3
-8 -8 7 422.944 361.802 1
8 8 -7 28.4857 460.504 3
8 -8 -7 663.289 360.724 6
-8 8 7 544.423 545.892 1
-8 -8 -7 1254.52 619.513 9
8 -8 7 313.632 316.588 5
-8 8 -7 447.654 549.114 7
8 -8 -8 1240.61 464.093 3
-8 8 8 1278.7 647.321 1
8 -8 8 795.205 266.499 5
-8 8 8 967.13 372.574 4
-8 8 -8 779.948 353.778 7
-8 -8 8 1482.26 461.699 5
-8 -8 8 1009.01 334.142 4
8 8 -8 823.457 474.475 3
-8 8 9 9527.07 1039.24 4
8 -8 9 8294.49 1027.67 5
-8 -8 9 9059.7 1073.62 5
-8 -8 9 10043.3 1012.59 4
8 -8 10 -216.294 242.675 5
-8 8 10 81.6612 221.012 4
-8 -8 10 149.316 197.393 4
8 -8 11 -142.956 274.833 5
-8 8 11 181.491 234.026 4
-8 -8 11 102.528 225.871 4
-8 8 12 100.256 245.545 4
-8 -8 12 -14.6228 189.162 4
-8 8 13 -192.644 190.327 4
8 -8 13 95.5763 260.803 5
-8 -8 13 234.698 220.822 4
-8 8 14 173.902 150.751 4
8 -8 14 35.8007 163.934 5
0 9 0 -78.0168 276.779 7
-9 0 0 211.462 216.831 1
9 0 0 -16.5037 218.515 3
0 -9 0 158.357 234.798 9
-9 0 0 -206.709 343.646 9
9 0 1 16045.9 1295.05 2
0 9 1 17784.6 1326.26 7
-9 0 -1 16897.4 1254.47 9
9 0 -1 18215.9 1290.91 3
0 -9 1 18240.3 1240.41 9
0 -9 -1 17485.9 1284.25 9
9 0 1 16468.1 1132.6 3
-9 0 1 15873.1 1188.02 1
0 9 -1 16668.7 1289.35 7
0 -9 -2 245751 4941.57 9
9 0 2 226251 4931.92 2
9 0 -2 229595 4779.94 3
-9 0 2 233457 4709.7 1
-9 0 -2 236517 4594.57 9
9 0 2 231883 3950.33 3
0 9 2 228753 4922.01 8
0 -9 2 235348 4282.3 9
0 9 -2 222768 4706.66 7
0 9 2 230713 4789.96 7
9 0 3 154305 4125.2 2
9 0 -3 167405 4298.73 3
0 -9 -3 168481 4250.02 9
-9 0 -3 160388 3801.79 9
0 9 3 160222 4309.33 8
-9 0 3 165686 4175.04 1
0 -9 3 155390 3287.69 9
0 9 -3 157481 4151.71 7
0 9 3 159451 4026.38 7
0 9 4 60760.8 2556.67 7
9 0 4 65443.5 2856.94 2
-9 0 4 66108.7 2848.73 1
9 0 -4 66964.5 2917.56 3
0 9 4 65360.8 2890.45 8
0 -9 -4 62915.1 2342.18 3
0 -9 -4 67603.3 2835.01 9
-9 0 -4 64089.8 2401.23 9
0 9 -4 65647 2811.45 7
-9 0 5 1733.29 555.521 1
0 9 5 1425.37 480.871 1
0 -9 -5 1623.46 535.66 9
0 9 5 1323.32 573.022 8
9 0 -5 1615.81 545.489 3
9 0 5 1369.67 456.643 2
0 9 -5 1538.44 563.549 7
0 -9 -6 1559.9 504.753 9
0 9 6 947.424 508.084 8
9 0 -6 1315.24 526.018 3
-9 0 6 1306.41 512.676 1
0 9 -6 1959.95 574.935 7
0 9 6 1690.16 532.805 1
0 9 7 4682.84 901.125 1
-9 0 7 6073.59 1077.17 1
0 -9 7 4992.91 786.323 5
9 0 7 4715.39 707.623 5
0 -9 -7 4926.59 940.505 9
0 9 7 4624.82 1041.4 8
9 0 -7 4603.61 954.909 3
0 -9 7 5689.09 731.484 4
0 9 -7 4436.8 838.636 7
-9 0 8 11103 1507.27 1
9 0 8 9347.14 1039.86 5
0 -9 8 9152.49 1084.09 5
0 -9 -8 8004.7 1235.93 9
0 9 8 8116.84 1450.12 8
0 -9 8 8989.44 983.15 4
9 0 -8 8569.23 1353.81 3
0 9 -8 7388.61 1102.37 7
-9 0 8 6446.55 793.403 4
0 9 8 8120.08 885.649 4
-9 0 9 2205.97 470.722 4
0 -9 9 2011.62 577.983 5
0 -9 -9 2290.98 774.381 9
9 0 9 2019.91 532.119 5
0 9 9 2193.8 488.766 4
9 0 -9 1559.9 670.808 3
-9 0 9 3088.36 848.355 1
0 9 9 1784.07 874.867 8
0 -9 9 2314.41 545.448 4
-9 0 10 3057.09 578.123 4
0 9 10 2659.66 593.493 4
9 0 10 2283.39 576.016 5
0 -9 10 2543.58 690.286 5
0 -9 10 2717.1 619.061 4
0 -9 11 4324.96 697.438 4
9 0 11 4582.38 785.918 5
0 -9 11 3896.99 782.09 5
-9 0 11 4809.61 731.151 4
0 9 11 4629.63 713.028 4
-9 0 12 728.691 272 4
0 9 12 957.551 353.07 4
9 0 12 568.544 339.122 5
0 -9 12 616.295 388.567 5
0 -9 12 689.09 362.66 4
0 9 13 380.106 252.437 4
9 0 13 284.491 250.23 5
0 -9 13 -168.272 242.949 5
-9 0 13 475.816 215.229 4
9 0 14 311.942 259.417 5
-9 0 14 64.5584 189.005 4
0 -9 14 0.65366 208.411 5
0 -9 15 138.024 148.348 5
-9 0 15 -356.485 199.572 4
9 1 0 5926.75 703.453 3
1 -9 0 8075.02 944.875 9
-1 -9 0 6438.19 781.966 9
9 -1 0 7104.02 879.202 3
-9 -1 0 6227.62 799.149 9
-9 1 0 7125.72 801.55 1
-1 9 0 6616.12 926.564 7
1 9 0 5188.24 734.015 7
9 1 1 9151.92 1045.98 2
9 1 -1 8476.8 893.858 3
-9 1 -1 8511.59 833.57 1
1 -9 -1 8458.99 909.187 9
1 -9 1 9016.38 873.053 9
9 -1 1 8559.92 1012.23 2
9 -1 -1 8702.21 912.972 3
-1 -9 1 8485.12 882.776 9
9 1 1 7899.43 768.716 3
-9 -1 -1 8793.05 921.597 9
9 -1 1 8273.49 840.262 3
-9 -1 1 7977.92 898.012 9
-9 -1 1 8499.23 889.49 1
-9 1 1 7602.17 836.521 1
-1 9 -1 7404.92 875.396 7
-9 1 -1 8258.24 896.472 9
1 9 -1 8051.26 909.18 7
-1 9 1 7906.77 894.024 7
1 9 1 8663.96 962.906 7
-1 -9 -1 9165.77 939.743 9
9 1 2 4738.23 548.615 3
9 1 -2 5229.86 770.575 3
-9 -1 2 5276.74 819.367 9
9 -1 2 5825.84 861.923 2
9 1 2 6362.64 888.473 2
-1 -9 -2 5556.74 750.929 9
9 -1 2 5501.87 680.988 3
-1 9 2 5944.7 851.953 8
1 -9 -2 5414.38 775.112 9
-1 -9 2 4808.48 647.25 9
1 -9 2 4727.16 610.298 9
-9 -1 2 5089.89 752.807 1
-9 -1 -2 5811.56 805.74 9
-1 9 -2 5204.77 782.999 7
1 -9 -2 5306.16 754.684 3
-9 1 -2 4670.92 684.48 9
1 9 2 5432.02 867.091 8
-9 1 2 5774.65 802.384 1
9 -1 -2 4674.87 727.249 3
1 9 2 5951.51 823.252 7
1 9 -2 4450.16 694.12 7
-1 9 2 4963.74 718.629 7
9 1 -3 8211.38 991.428 3
1 -9 -3 8702.54 929.14 3
-1 9 -3 9499.46 1113.59 7
-9 -1 -3 9238.43 961.533 9
9 -1 3 9313.28 1070.27 2
9 1 3 9747.2 1102.57 2
9 -1 3 9108 824.91 3
9 -1 -3 9809.57 1095.15 3
1 -9 3 7886.24 724.44 9
1 -9 -3 9718.51 1089.8 9
-1 -9 -3 10057.7 1061.81 9
-1 -9 3 8683.53 855.621 9
-9 1 -3 9783.85 978.056 9
-1 9 3 8962.91 1113.02 8
1 9 3 9426.12 1176.57 8
-9 -1 3 10119.3 1095.93 1
-9 1 3 9736.84 1058.87 1
1 9 -3 8830.75 1004.62 7
-1 9 3 8916.82 952.197 7
1 9 3 9440.08 1072.32 7
1 9 4 2574.56 722.8 8
-1 9 4 2093.33 496.865 7
-1 -9 -4 2542.5 626.235 9
9 -1 4 2276.46 637.208 2
1 -9 -4 2635.24 593.265 3
-9 -1 -4 2125.86 496.385 9
1 -9 -4 2303.95 597.665 9
-9 1 4 2332.16 640.438 1
-9 1 -4 1840.25 467.312 9
9 1 4 2679.46 622.059 2
-1 9 4 2547.52 615.434 1
-9 -1 4 2542.63 638.326 1
-1 9 4 3525.28 767.222 8
9 1 -4 2124.66 551.82 3
9 -1 -4 1768.93 573.794 3
-1 9 -4 2137.16 595.347 7
1 9 -4 2022.01 573.911 7
1 -9 -5 3841.67 622.47 3
9 1 5 4562.96 888.484 2
1 -9 -5 4031.57 771.377 9
1 9 5 5306.24 962.146 8
-9 -1 5 5837.92 986.083 1
-1 -9 -5 4824.56 842.102 9
1 9 -5 4001.67 753.796 7
-9 -1 -5 4335.24 717.419 9
9 -1 5 3915.45 814.658 2
-9 1 5 4039.8 786.774 1
-1 9 5 4794.56 899.264 8
9 1 -5 4669.11 925.393 3
9 -1 -5 4238.05 820.909 3
-1 9 -5 4241.61 801.873 7
-1 9 5 3684.16 695.072 1
-9 -1 6 1982.16 629.686 1
-1 9 6 2156.19 606.267 1
9 1 -6 1304.26 542.954 3
1 -9 -6 1692.51 564.613 9
-1 -9 -6 1658.48 509.328 9
-9 1 6 2963.03 714.558 1
-1 9 6 1803.15 591.648 8
1 9 6 2336.54 750.972 8
9 -1 -6 1919.55 626.153 3
-1 9 -6 1943.28 596.16 7
1 9 -6 1571.04 561.428 7
1 -9 7 907.514 359.013 4
-1 9 7 1489.82 601.845 1
-1 -9 7 926.391 253.083 4
1 9 -7 870.655 384.76 7
-9 -1 7 1553.69 568.707 1
-9 1 7 591.051 448.613 1
1 -9 -7 621.032 405.736 9
-1 -9 -7 959.662 522.229 9
9 -1 7 1174.99 381.44 5
-1 9 7 740.167 447.132 8
9 1 7 1247.3 411.32 5
1 9 7 650.768 541.67 8
9 1 -7 380.919 324.422 3
1 -9 7 1035.01 353.813 5
9 -1 -7 150.927 352.512 3
-1 -9 7 955.999 394.63 5
-1 9 -7 -1.30439 241.606 7
-1 9 8 375.724 301.438 1
-9 -1 8 657.32 278.986 4
-9 1 8 432.701 267.05 4
9 -1 -8 338.503 400.432 3
1 9 8 430.029 325.255 8
-9 -1 8 642.019 447.563 1
-1 -9 -8 996.63 497.28 9
-1 9 8 269.128 267.806 4
-1 9 -8 945.73 515.261 7
-9 1 8 1205.38 552.064 1
9 1 8 690.148 343.191 5
9 -1 8 866.474 348.976 5
1 -9 -8 1486.58 543.345 9
1 -9 8 707.158 404.265 5
-1 9 8 603.772 541.815 8
9 1 -8 302.953 371.534 3
-1 -9 8 437.441 348.328 5
1 -9 8 499.407 256.347 4
-1 -9 8 1152.42 412.17 4
9 1 9 948.071 401.066 5
-1 -9 9 721.042 370.026 4
-9 -1 9 791.492 352.227 4
-9 1 9 741.604 358.743 4
1 9 9 562.47 273.337 4
-1 9 9 1251.74 403.306 4
-9 -1 9 531.141 371.651 1
9 -1 9 966.147 395.576 5
1 -9 -9 686.605 409.281 9
-1 -9 -9 736.292 338.328 9
-1 9 9 318.123 463.336 1
-9 1 -9 1647.7 631.701 7
1 -9 9 1172.22 454.352 5
-1 -9 9 1492.44 531.671 5
1 9 9 1273.62 714.833 8
-1 9 9 596.053 696.583 8
-9 1 9 972.301 481.7 1
9 1 -9 1706.22 646.095 3
9 -1 -9 621.251 399.298 3
1 -9 9 1059.97 423.076 4
-9 -1 10 1073.78 377.209 4
-9 1 10 660.476 356.073 4
1 9 10 713.724 244.196 4
-1 9 10 1555.45 471.577 4
1 -9 10 918.575 468.28 5
-1 -9 10 600.309 244.767 4
9 -1 10 662.299 381.102 5
-1 -9 10 1393.88 460.868 5
9 1 10 812.629 418.199 5
1 -9 10 1355.79 453.508 4
-9 -1 11 446.594 245.325 4
-9 1 11 114.959 229.554 4
9 1 11 520.486 347.101 5
-1 9 11 331.988 332.738 4
9 -1 11 1385.77 467.78 5
1 -9 11 295.625 307.783 4
1 -9 11 706.45 390.965 5
-1 -9 11 -182.05 352.888 5
-1 -9 11 448.447 324.422 4
9 1 12 -435.621 303.164 5
-9 -1 12 169.105 230.15 4
-9 1 12 206.782 245.378 4
-1 9 12 33.1326 208.775 4
1 -9 12 602.46 419.762 5
-1 -9 12 349.775 301.9 5
9 -1 12 343.726 318.63 5
-1 -9 12 107.934 241.337 4
-1 9 13 -183.404 210.506 4
9 -1 13 199.204 273.55 5
9 1 13 676.746 330.272 5
1 -9 13 429.999 254.064 5
-9 1 13 53.8801 204.987 4
-1 -9 13 164.635 255.649 5
-9 -1 13 -189.697 218.896 4
-9 -1 14 -188.288 211.455 4
-9 1 14 615.828 261.04 4
9 -1 14 15.7406 200.55 5
-1 9 14 -449.513 226.654 4
1 -9 14 93.3807 220.709 5
-1 -9 14 233.603 247.073 5
-9 1 15 144.716 157.341 4
1 -9 15 252.099 180.471 5
-9 -1 15 647.988 231.907 4
-2 9 0 46.1719 227.21 7
9 -2 0 -37.7507 294.825 3
-2 -9 0 160.178 234.41 9
2 -9 0 57.8696 225.45 9
-9 2 0 -84.7543 189.253 1
-9 -2 0 -136.157 233.188 9
9 2 0 -176.33 238.336 3
2 9 0 58.0051 237.896 7
9 -2 1 67761.1 2717.13 2
9 2 1 69307.8 2704.53 2
2 -9 -1 67519.1 2572.61 3
-9 -2 1 65279.5 2485.5 1
2 -9 1 67996.2 2369.37 9
-2 -9 -1 67772.7 2536.05 9
9 2 -1 65935 2400.5 3
-2 9 -1 64344.8 2544.27 7
-2 -9 1 67261.1 2427.55 9
9 2 1 67821.5 2152.97 3
9 -2 -1 65866.8 2532.64 3
-9 -2 -1 66112.4 2510.8 9
-9 -2 1 64845 2522.9 9
9 -2 1 65548.6 2412.32 3
-2 9 1 64785.4 2488.14 7
-9 2 -1 62745.8 2126.69 1
-9 2 1 66392.1 2376.83 1
2 9 -1 62060.5 2504.08 7
2 9 1 65557.4 2557.75 7
-2 9 -2 43618.8 2196.92 7
9 -2 2 45291.8 2238.84 2
9 2 2 45170.4 2205.7 2
9 -2 2 43808 1909.46 3
2 -9 -2 44920.4 2119.7 3
9 2 -2 44371.1 2084.95 3
2 9 -2 45244.4 2176.28 7
2 -9 2 45003.4 1824.64 9
9 -2 -2 46395.4 2219.44 3
-2 -9 -2 46221.5 2145.42 9
-2 -9 2 45049.6 1956.02 9
-9 -2 -2 45926.3 2113.84 9
-9 -2 2 45040.1 2171.44 9
-9 2 -2 42647 1731.06 1
-2 9 2 45901 2262.64 8
2 9 2 43579.4 2232.98 8
-9 -2 2 44022.8 2104.65 1
-9 2 2 45369.6 2089.11 1
-2 9 2 44450.1 2104.28 7
2 9 2 44324.2 2167.69 7
9 -2 -3 55387.5 2549.64 3
9 -2 3 51582 2430.14 2
9 2 3 52322.3 2445.42 2
-2 -9 3 50522 1886.12 1
-2 9 3 52064.3 2181.28 1
9 2 -3 52233.5 2422.71 3
9 -2 3 51016.4 2030.43 3
2 -9 -3 50515.1 2260.24 3
-2 -9 -3 51878.7 2393.18 9
-2 -9 3 51041 2059.16 9
-9 -2 -3 52388 2269.54 9
2 9 3 50787.5 2419.31 7
-2 9 3 52042.6 2254 7
-2 9 3 51814.4 2483.59 8
2 9 3 51450.5 2513.27 8
-9 -2 3 53458 2422.49 1
-2 9 -3 52453.2 2469.24 7
2 9 -3 50020.4 2395.68 7
-9 2 3 55647 2444.75 1
-2 -9 -4 29032.5 1871.43 9
9 -2 4 29482.2 1955.2 2
9 2 4 27751.8 1899.38 2
-2 9 4 27606.5 1758.16 1
-9 -2 -4 26215.3 1653.53 9
9 2 -4 29284.4 1920.07 3
9 -2 -4 29319.8 2010.36 3
-2 9 -4 29388.8 1976.22 7
-2 9 4 26521.6 1895.25 8
2 9 4 28922.3 1969.22 8
-9 -2 4 29700.4 1947.13 1
2 -9 -4 27170.8 1721.76 3
2 9 -4 27957.8 1828.03 7
-2 9 4 26655.1 1608.32 7
-9 2 4 29413.7 1894.03 1
-2 9 5 4494.52 787.438 1
2 9 -5 3864.02 766.375 7
2 -9 -5 4397.58 745.095 3
-9 2 5 4378.91 845.051 1
-2 -9 -5 6050.95 911.572 9
2 9 5 4117.41 871.41 8
-2 9 -5 4954.41 856.109 7
9 2 -5 3955.28 812.24 3
9 -2 5 5425.29 931.855 2
9 2 5 4860.62 891.284 2
-9 -2 -5 4416.92 677.09 9
-2 9 5 4694.89 924.666 8
-9 -2 5 5315.18 915.357 1
9 -2 -5 4842.28 890.725 3
-9 2 6 -126.909 355.74 1
9 2 -6 -57.1278 444.189 3
-2 -9 -6 454.706 389.95 9
-2 9 6 -46.4897 309.908 8
2 9 6 289.711 323.771 8
9 -2 -6 117.555 355.793 3
-2 9 -6 524.073 345.193 7
-9 -2 6 187.351 345.876 1
2 9 -6 100.905 294.451 7
-2 9 6 73.4195 280.776 1
-2 9 -7 981.841 405.902 7
-9 -2 7 1711.86 626.375 1
-2 9 7 626.346 319.05 1
-2 -9 -7 513.872 402.18 9
9 -2 7 956.406 390.832 5
-9 2 7 1232.95 330.203 4
-9 2 7 1225.06 520.765 1
2 -9 -7 879.553 484.962 9
2 -9 7 477.513 334.975 4
9 2 -7 285.005 413.062 3
-2 9 7 961.088 607.454 8
2 9 7 1285.05 707.009 8
2 -9 7 444.072 254.239 5
9 2 7 744.109 327.432 5
9 -2 -7 962.442 548.907 3
-2 -9 7 1043.47 398.952 5
-2 -9 7 1152.28 317.642 4
2 9 -7 1542.59 581.633 7
-2 9 8 322.566 322.339 1
-9 -2 8 657.907 283.653 4
2 -9 8 76.0431 270.051 5
-9 -2 8 73.6869 307.78 1
-9 2 8 545.257 301.828 4
2 9 8 304.168 489.051 8
-2 -9 -8 838.589 420.882 9
-2 9 8 655.488 350.608 4
2 -9 -8 571.886 495.877 9
9 2 8 -95.9173 235.208 5
-9 2 8 532.569 331.666 1
-9 2 -8 1605.28 685.328 7
9 2 -8 470.777 357.844 3
-2 9 8 -292.514 595.381 8
9 -2 8 -10.6545 210.457 5
-2 -9 8 451.444 259.194 5
9 -2 -8 350.584 306.214 3
2 -9 8 597.404 323.334 4
-2 -9 8 -137.109 264.504 4
-2 9 -8 287.857 311.205 7
-2 9 9 6180.92 817.922 4
-9 -2 9 7922.23 1382.32 1
2 9 9 5676.73 1402.09 8
-2 9 9 5469.41 1143.85 1
2 -9 9 6019.6 829.368 4
9 -2 9 6807.87 903.703 5
9 2 9 5232.28 814.059 5
2 -9 9 7360.05 1000.52 5
-2 -9 9 7005.55 991.635 5
-9 2 9 5720.59 777.396 4
2 -9 -9 5137.08 1017.72 9
-2 -9 9 6175.23 853.578 4
-9 2 9 5523.23 1134.27 1
-2 9 9 5462.33 1216.11 8
9 2 -9 6073.26 1176.94 3
-2 -9 -9 5061.4 965.158 9
9 -2 -9 6250.69 1239.21 3
-9 -2 9 5500.34 735.833 4
-9 2 -9 6648.16 1320.28 7
-2 -9 10 4945.88 849.674 5
-9 -2 10 3689.8 619.033 4
-9 2 10 3849.26 646.137 4
-2 9 10 3469.09 658.466 4
9 2 10 3034.33 659.69 5
9 -2 10 2979.01 609.923 5
2 -9 10 3930.88 756.785 5
2 -9 10 4066.16 699.467 4
-2 -9 10 3943.96 710.331 4
-2 -9 11 16.9299 385.842 5
9 2 11 169.384 294.634 5
-9 -2 11 140.436 193.132 4
-9 2 11 44.4001 212.683 4
-2 9 11 -88.1059 250.281 4
9 -2 11 788.18 356.461 5
2 -9 11 227.374 315.16 5
-2 -9 11 7.88312 218.007 4
-9 -2 12 501.669 314.156 4
-2 9 12 921.669 383.704 4
2 -9 12 778.8 372.247 5
9 -2 12 525.443 312.758 5
-2 -9 12 938.908 411.779 5
-9 2 12 570.699 339.279 4
9 2 12 617.792 378.972 5
-2 -9 12 661.92 361.888 4
-2 -9 13 231.844 283.264 5
9 -2 13 620.814 332.81 5
-2 9 13 401 267.559 4
9 2 13 683.665 342.348 5
2 -9 13 248.631 279.662 5
-9 2 13 105.742 250.187 4
-9 -2 13 303.4 271.3 4
-2 -9 14 345.336 253.664 5
-9 2 14 -30.1256 176.95 4
-2 9 14 -424.527 194.043 4
9 -2 14 438.447 281.226 5
2 -9 14 -54.3615 187.024 5
-9 -2 14 539.638 286.916 4
-9 2 15 -54.7171 130.696 4
2 -9 15 42.6916 135.012 5
-9 -2 15 -49.4233 134.221 4
9 3 0 48861.1 1971.46 3
3 -9 0 52125.9 2326.22 3
-3 -9 0 50422.7 2206.57 9
-9 -3 0 49539 2234.96 9
9 -3 0 51702.7 2254.28 3
-3 9 0 46103.3 2165.33 7
-9 3 0 48548.3 1940.25 1
3 9 0 48352.2 2212.86 7
9 3 -1 39085.1 1841.1 3
9 -3 1 45825.4 2243.68 2
9 3 1 45250.7 2186.55 2
-3 -9 -1 43519.1 2073.59 9
-9 -3 1 41291.1 2007.32 9
9 -3 1 42578.3 2016.8 3
3 -9 -1 43944.4 2156.86 3
9 -3 -1 45329.5 2191.93 3
3 -9 1 41759.2 1880.49 9
9 3 1 42382.2 1665.9 3
-3 -9 1 44442.2 2013.08 9
-9 -3 -1 42399.5 2032.82 9
-9 3 -1 41101.8 1705.69 1
-3 9 -1 40625.9 2123.29 7
-9 3 1 44654.1 1970.71 1
-3 9 1 42059.6 2028.08 7
3 9 -1 41912 2098.94 7
3 9 1 41287 2071.2 7
9 -3 2 29552.1 1679.05 3
9 3 -2 30449.9 1717.49 3
9 -3 2 30419.7 1832 2
9 3 2 32311.8 1862.47 2
3 -9 -2 30561.1 1818.51 3
-3 9 2 29550.4 1544.11 1
-3 9 -2 30670.6 1876.71 7
-3 -9 -2 33795.5 1881.31 9
3 -9 2 28978.2 1482.42 9
-3 9 2 30926.6 1747.69 7
9 -3 -2 30457.6 1852.27 3
-3 -9 2 27878.6 1620.82 9
-9 -3 -2 29936.2 1729.54 9
-9 -3 2 28536.6 1774.03 9
-9 3 -2 27899.8 1341.85 1
-3 9 2 29178.9 1824.1 8
-9 -3 2 30278.9 1791.79 1
3 9 -2 27893.5 1733.27 7
3 9 2 29685.7 1851.14 8
-9 3 2 29830.6 1542.35 7
3 9 2 27431.4 1777.48 7
-9 3 2 29847 1709.67 1
-9 3 3 1852.81 502.452 1
3 -9 -3 2461.06 560.293 3
9 -3 3 2579.4 622.985 2
9 -3 3 2143.87 485.648 3
-9 -3 3 2006.48 529.073 9
9 3 3 2733.19 590.354 2
-9 -3 -3 2266.72 522.147 9
-3 -9 -3 2179.17 543.441 9
-3 -9 3 1886.04 453.925 1
-3 9 3 2720.68 537.522 1
-3 -9 3 2421.32 526.296 9
-9 -3 3 2348 558.571 1
-3 9 3 1636.47 512.484 8
3 9 3 3144.47 664.991 8
9 3 -3 2838.13 625.199 3
9 -3 -3 2180.14 550.222 3
-3 9 -3 2065.65 532.073 7
3 9 -3 2229.75 506.013 7
-3 9 3 2427.56 516.091 7
-3 9 4 67.2237 236.811 7
9 3 -4 -323.48 349.406 3
3 -9 -4 682.671 370.589 3
-9 3 4 255.758 349.391 1
9 -3 4 123.894 318.032 2
-9 -3 4 -284.191 305.723 1
3 9 4 226.954 391.211 8
-3 -9 4 -22.3353 198.293 1
-3 -9 4 432.645 300.36 9
-9 -3 -4 -115.843 243.952 9
9 3 4 253.328 326.883 2
-3 -9 -4 104.989 312.477 9
-3 9 4 53.4763 230.183 1
-3 9 4 -222.921 319.823 8
9 -3 -4 79.5516 307.047 3
-3 9 -4 681.441 380.729 7
3 9 -4 -365.533 338.403 7
-9 -3 -5 2784.09 585.199 9
9 3 -5 3549.88 788.416 3
-3 -9 -5 2198.16 626.868 9
-3 9 5 3069.12 650.906 1
-9 3 5 3025.37 712.631 1
9 -3 5 2795.4 715.694 2
9 3 5 3192.17 706.775 2
3 -9 -5 1751.54 494.91 3
-3 9 -5 2793.83 694.022 7
-3 9 5 1791.32 639.915 8
3 9 5 3424.78 779.057 8
-9 -3 5 2679.29 658.516 1
9 -3 -5 3798.26 822.857 3
3 9 -5 2544.75 619.884 7
9 3 -6 3655.26 842.545 3
3 9 6 2916.33 711.451 8
-9 3 6 3682.94 775.757 1
-3 9 6 3451.86 761.527 1
-3 -9 -6 3493.82 728.277 9
3 -9 -6 3040.22 679.209 3
9 -3 -6 4089.66 916.444 3
-9 -3 6 4055.58 850.652 1
-3 9 6 2950.49 785.147 8
-3 9 -6 3219.84 746.718 7
3 9 -6 2760.2 629.618 7
-9 -3 7 714.378 459.571 1
-9 3 7 1464.03 567.582 1
3 9 -7 982.265 407.499 7
-9 3 7 1221.87 378.664 4
-3 -9 -7 665.226 436.752 9
-3 9 7 857.027 495.498 8
9 3 7 1413.63 428.496 5
-3 9 7 1126.74 447.418 1
3 9 7 321.319 454.806 8
9 -3 7 960.833 348.852 5
-3 -9 7 905.775 336.078 4
9 3 -7 429.254 341.211 3
3 -9 7 1386.29 453.016 5
9 -3 -7 1209.59 557.981 3
-9 3 -7 427.05 446.226 7
-3 9 -7 1097.73 500.503 7
9 -3 8 381.516 214.519 5
-9 -3 8 170.356 214.171 4
-9 -3 8 1116.75 624.37 1
-9 3 8 862.963 319.86 4
-3 9 8 -3.73015 518.144 8
3 -9 8 211.444 300.628 5
-3 9 8 608.746 322.421 4
9 3 8 253.746 307.126 5
-3 -9 -8 98.1732 330.97 9
-3 -9 8 669.856 325.19 4
3 -9 -8 582.928 484.042 9
9 3 -8 449.497 489.617 3
3 9 8 584.637 424.126 8
-3 -9 8 289.025 284.525 5
-3 9 8 254.422 436.943 1
9 -3 -8 -29.237 376.904 3
-9 3 8 214.676 301.113 1
3 -9 8 522.656 306.523 4
-9 3 -8 786.013 594.704 7
-3 9 -8 163.156 295.369 7
-9 -3 9 -39.4944 210.128 4
-9 3 9 -352.649 221.03 4
-3 9 9 -218.587 560.53 1
-3 9 9 -133.559 262.178 4
9 3 9 219.967 342.316 5
-9 -3 9 511.214 432.723 1
-3 9 9 41.6496 529.395 8
9 -3 9 -85.6191 226.179 5
3 -9 -9 -74.1313 256.799 9
-3 9 -9 99.141 312.51 7
-9 3 -9 -303.437 369.195 7
3 -9 9 -135.867 333.052 5
9 3 -9 -578.965 648.002 3
9 -3 -9 29.6087 366.647 3
3 9 9 -639.6 584.639 8
-3 -9 9 -228.589 351.912 5
-9 3 9 -95.0633 297.329 1
-3 -9 9 -540.579 312.229 4
-9 -3 10 -134.94 284.613 4
-9 3 10 197.874 261.902 4
-3 9 10 482.033 304.767 4
-3 -9 10 225.924 282.016 4
9 -3 10 80.216 250.185 5
9 3 10 98.4833 303.538 5
3 -9 10 99.6705 395.679 5
-3 -9 10 29.3044 344.207 5
-9 3 11 -470.421 313.673 4
9 -3 11 56.5962 252.032 5
-3 9 11 -54.4589 265.229 4
-9 -3 11 31.6417 228.629 4
3 -9 11 299.541 286.958 5
-3 -9 11 -17.6012 278.649 5
9 3 11 70.3644 285.806 5
-3 -9 11 387.111 342.039 4
9 3 12 686.92 355.989 5
3 -9 12 747.61 349.32 5
-9 -3 12 342.582 330.108 4
-9 3 12 1154.63 355.428 4
9 -3 12 775.747 414.536 5
-3 9 12 153.034 234.624 4
-3 -9 12 516.014 330.276 5
-3 -9 12 284.843 236.666 4
-9 -3 13 307.712 201.708 4
-3 -9 13 752.352 379.922 5
-9 3 13 10.7013 202.255 4
-3 9 13 293.36 228.008 4
3 -9 13 556.464 302.508 5
9 -3 13 157.01 213.748 5
-3 -9 13 275.082 224.748 4
-3 -9 14 153.578 220.623 5
-9 3 14 201.073 203.046 4
-3 9 14 -25.5401 155.575 4
9 -3 14 106.572 184.184 5
3 -9 14 304.952 219.883 5
-9 -3 14 691.815 263.643 4
-9 -3 15 -104.732 111.511 4
-9 3 15 221.929 156.955 4
3 -9 15 259.399 175.176 5
4 9 0 262.276 354.621 7
9 -4 0 -72.4897 251.9 3
-4 9 0 7.75097 314.582 7
4 -9 0 590.45 390.515 3
9 4 0 116.593 229.424 3
-9 -4 0 93.1879 288.368 9
-4 -9 0 -58.5461 299.369 9
-9 4 0 292.522 347.644 7
-9 4 0 588.358 299.287 1
-9 4 -1 9625.21 804.653 1
4 -9 -1 9932.99 1066.5 3
9 -4 1 9707.02 1033.1 3
-9 -4 1 8901.51 983.002 9
9 -4 1 9648.84 1042.5 2
9 4 1 10092.7 1078.49 2
-4 9 -1 10334.2 1089.82 7
9 4 -1 8517.56 864.693 3
-4 -9 -1 9748.7 1019.51 9
-4 -9 1 9953.6 1030.36 9
-9 -4 -1 10314.9 1057.15 9
9 -4 -1 9570.56 1044.29 3
4 9 -1 8970.39 993.225 7
4 9 1 9288.07 1059.26 8
-9 4 1 10283.7 1008.99 7
-4 9 1 9277.99 971.915 7
4 9 1 8670.11 1018.71 7
-9 4 1 10726.2 987.693 1
-4 9 -2 27670.6 1845.83 7
-4 -9 -2 29055 1774.39 9
9 -4 2 27423.6 1751.44 2
9 4 2 27815 1748.68 2
-4 9 2 27264.6 1495.32 1
-9 4 2 29737.4 1729.02 1
9 -4 2 25910.7 1642.95 3
9 4 -2 25008.2 1597.73 3
4 -9 2 28184.3 1490.02 9
-4 -9 2 25993.7 1624.15 9
9 -4 -2 28404.5 1859.01 3
-9 -4 -2 27689.5 1716.29 9
-9 -4 2 27372.8 1756.65 9
4 -9 -2 27748.4 1772.88 3
4 9 2 26770.9 1811.96 8
-9 -4 2 26538.1 1751.03 1
-9 4 2 25116.8 1409.93 7
-4 9 2 26724.5 1816.89 8
-4 9 2 26107.1 1614.21 7
4 9 -2 28636.3 1778.37 7
4 9 2 27201.9 1803.54 7
-4 9 3 19037.2 1551.25 8
-9 -4 3 17290.5 1448.67 9
-9 -4 -3 17635 1407.28 9
9 -4 3 16837 1426.59 2
9 4 3 18485.9 1467.59 2
-4 9 3 18323.5 1363.04 1
-4 -9 3 16370.5 1290.4 9
-9 -4 3 17582.1 1456.51 1
-4 -9 3 16001.9 1244.19 1
9 -4 3 16778.3 1322.05 3
9 4 -3 17518.6 1447.58 3
-4 -9 -3 19138.8 1501.34 9
9 -4 -3 16716.9 1500.07 3
4 -9 -3 17681.4 1474.15 3
4 9 3 17992.7 1522.81 8
-4 9 -3 17082.5 1517.15 7
4 9 -3 17224 1425.27 7
-9 4 3 18005.4 1430.55 1
-4 9 3 18354.5 1343.11 7
-9 4 4 6558.99 939.132 1
4 9 4 5330.23 927.175 8
-9 -4 4 6046.4 941.953 9
4 -9 -4 5799.94 870.203 3
-4 9 4 6546.12 897.476 1
9 -4 4 6083.92 935.882 2
9 4 4 7527.4 1022.94 2
9 4 -4 6037.74 946.632 3
-4 -9 -4 6512.12 921.67 9
-4 9 4 6312.99 966.374 8
-9 -4 -4 6240.14 878.087 9
-4 -9 4 5276.91 733.255 9
-9 -4 4 6987.81 989.739 1
-4 -9 4 4643.58 658.542 1
9 -4 -4 6873.08 1187.48 3
4 9 -4 5438.21 839.667 7
-4 9 -4 5098.8 894.697 7
-9 4 5 6623.94 990.208 1
-4 -9 -5 6422.36 978.478 9
-4 9 5 7620.34 1039.87 1
9 -4 5 7700.85 1100.68 2
9 4 5 6666.26 1011.08 2
9 4 -5 7138.01 1050.66 3
-9 -4 -5 5576.58 839.133 9
9 -4 -5 7018.32 1116.07 3
4 -9 -5 5856.18 924.837 3
-4 9 5 7518.29 1120.99 8
4 9 5 7071.41 1156.78 8
-9 -4 5 7441.95 1081.57 1
-4 -9 5 7354.18 905.544 1
-4 9 -5 7332.3 1115.14 7
4 9 -5 7073.09 1008.04 7
-9 4 -5 7155.36 1157.51 7
-4 9 6 -814.519 505.975 8
4 -9 -6 -23.6166 302.874 3
9 4 6 281.831 212.105 5
-4 9 6 -379.844 400.505 1
-4 -9 -6 -148.289 380.222 9
-9 4 6 -502.447 520.355 1
-9 -4 -6 -250.344 337.613 9
4 9 6 36.3751 330.826 8
9 -4 -6 696.579 445.019 3
9 4 -6 480.879 433.465 3
-9 4 -6 79.4979 518.285 7
-9 -4 6 464.835 439.756 1
-4 9 -6 129.147 286.986 7
4 9 -6 344.815 316.786 7
-9 -4 7 762.343 550.557 1
4 -9 -7 603.177 343.64 3
9 4 7 30.8605 222.905 5
9 -4 -7 -60.7095 358.736 3
-9 4 7 -74.8921 423.729 1
4 9 7 -504.461 456.117 8
-4 9 7 -113.436 358.207 1
-9 4 7 -40.4368 201.099 4
-4 -9 -7 -253.271 386.009 9
9 4 -7 -543.787 572.044 3
4 -9 7 916.595 325.89 5
-4 9 7 -193.342 530.359 8
9 -4 7 -200.109 275.972 5
-9 4 -7 62.4042 358.538 7
-4 9 -7 34.7987 321.73 7
-4 -9 7 -596.32 324.46 4
-9 -4 8 2367.6 495.103 4
9 4 8 3302.93 659.628 5
-9 -4 8 5155.97 1106.71 1
-9 4 8 2838.87 550.633 4
4 -9 8 3029.64 642.548 5
-4 9 8 3212.89 605.048 4
-4 -9 8 2927.16 692.573 5
-4 9 8 2636.34 798.039 1
-4 -9 -8 2198.02 647.922 9
-4 -9 8 3006.55 556.728 4
9 -4 8 3403.74 639.649 5
-9 4 8 2709.09 819.04 1
4 9 8 2257.84 648.655 8
-4 9 8 2313.93 832.876 8
-9 4 -8 2994.99 920.655 7
9 -4 -8 3305.7 877.112 3
-4 9 -8 3598.67 895.957 7
9 4 -8 3285.38 796.672 3
-9 -4 9 -92.3325 224.09 4
-9 4 -9 49.8964 496.295 7
-9 4 9 299.525 253.949 4
4 -9 -9 307.806 309.732 9
-4 9 9 406.443 326.492 4
-9 -4 9 114.743 336.39 1
9 4 9 578.603 332.941 5
9 -4 9 534.472 368.398 5
-4 -9 9 284.997 295.989 4
4 -9 9 612.243 327.529 5
4 9 9 -2159.41 809.341 8
-4 9 9 349.919 513.596 8
-4 -9 9 347.284 342.178 5
-4 9 9 -690.917 403.703 1
9 -4 -9 -1729.75 674.277 3
-4 9 -9 -18.1183 333.613 7
-9 4 9 612.944 353.783 1
9 4 -9 -296.28 504.931 3
-9 -4 10 167.289 220.69 4
-4 -9 10 339.922 317.4 5
-9 4 10 184.258 219.102 4
-4 9 10 527.273 345.05 4
9 4 10 36.4343 342.633 5
-4 -9 10 608.613 354.758 4
4 -9 10 375.878 317.099 5
9 -4 10 361.903 272.846 5
-9 -4 11 921.273 351.981 4
9 4 11 1233.75 443.017 5
-9 4 11 774.491 365.572 4
-4 9 11 1703.49 478.379 4
9 -4 11 1217.5 443.657 5
4 -9 11 1783.38 578.311 5
-4 -9 11 1557.75 485.568 5
-4 -9 11 1195.47 371.607 4
-9 4 12 174.631 245.625 4
-4 9 12 217.847 274.73 4
9 -4 12 396.372 346.8 5
-9 -4 12 0.72868 207.922 4
4 -9 12 224.675 267.254 5
-4 -9 12 -89.9901 199.972 4
-4 -9 12 -249.05 271.207 5
-9 4 13 325.916 251.706 4
4 -9 13 -38.3128 254.024 5
-4 9 13 -146.018 189.404 4
-4 -9 13 185.15 208.756 5
9 -4 13 -141.982 223.916 5
-4 -9 13 -452.097 279.468 4
-9 -4 13 -59.8706 240.595 4
9 -4 14 -320.825 226.574 5
-9 4 14 277.389 224.923 4
-4 9 14 346.149 221.074 4
4 -9 14 -216.851 197.76 5
-9 -4 14 -86.565 165.762 4
-9 4 15 -35.7095 140.856 4
9 -4 15 149.921 149.833 5
4 -9 15 91.3593 141.72 5
5 -9 0 44011.8 2267.58 3
9 5 0 41761.3 1786.7 3
9 5 0 44522.1 2195.23 2
9 -5 0 44848.1 2274.9 2
9 -5 0 48036.5 2347.26 3
-9 5 0 46636.8 2315.61 7
-9 -5 0 42078 2143.1 9
-5 -9 0 45961.4 2192.87 9
-5 9 0 46391 2264.74 7
5 9 0 42592.3 2222.14 7
-9 5 0 44296.3 1835.05 1
-5 9 -1 39984.3 2207.27 7
-9 -5 -1 39019.6 2041.93 9
9 -5 1 40521.8 2135.28 2
9 5 1 40667.4 2112.34 2
9 -5 1 41750.8 2184.44 3
9 5 -1 37388.7 1831.64 3
5 -9 -1 41600.6 2217.07 3
-5 -9 -1 40767.4 2112.54 9
-5 -9 1 39827.7 2095.53 9
-9 -5 1 40724.7 2105.95 9
9 -5 -1 39126.7 2207.22 3
-5 9 1 39607.9 2133.51 8
5 9 1 37148 2102.75 8
-9 5 -1 45763.4 2429.1 7
-9 5 1 39970.6 1965.64 7
-5 9 1 41215.3 2088.34 7
5 9 -1 36136.2 2013.47 7
5 9 1 37213.1 2097.47 7
-9 5 1 43702.4 1970.5 1
-9 -5 2 27287.8 1840.16 1
9 -5 2 22088 1590.73 2
9 5 2 23909.9 1692.21 2
9 -5 2 22514.6 1605.04 3
-5 9 2 22676.2 1419.42 1
-5 9 -2 23738 1759.44 7
9 -5 -2 23779 1744.96 3
9 5 -2 26044.2 1638.88 3
-5 -9 -2 24568.2 1702.92 9
-5 -9 2 25169.7 1699.44 9
-9 -5 -2 24843.3 1675.45 9
-9 -5 2 24597.2 1704.12 9
5 -9 -2 22969.4 1704.28 3
-5 9 2 22110.8 1670.65 8
5 9 2 24567.4 1756.48 8
-9 5 2 24260.7 1558.95 1
-9 5 -2 25327.2 1909.58 7
-9 5 2 22357.5 1363.4 7
-5 9 2 20909.5 1450.17 7
5 9 -2 23860.7 1677.23 7
5 9 -3 4545.55 814.583 7
5 -9 -3 4007.33 740.464 3
-5 -9 3 4490.52 735.017 9
-9 -5 3 4984.07 842.532 9
-5 9 3 4956.37 738.573 1
-9 -5 -3 4701.49 784.799 9
-9 5 3 4458.82 736.307 1
-9 -5 3 5379.7 840.567 1
9 -5 3 4761.4 781.425 2
-5 -9 -3 5104.91 848.248 9
9 5 3 4456.52 791.93 2
-5 9 3 5295.86 743.227 7
-5 9 -3 5175.92 880.809 7
-5 -9 3 4533.31 726.724 1
9 5 -3 4323.44 750.383 3
-5 9 3 4414.46 790.135 8
5 9 3 4064.5 799.989 8
-9 5 -3 4920.92 909.987 7
9 -5 -3 4726.63 864.214 3
-9 5 4 11526 1226.54 1
-9 -5 4 11385.2 1280.81 9
-9 -5 -4 12529.3 1278.76 9
-5 9 4 10882.4 1174.36 1
9 -5 4 11062.8 1248.78 2
9 5 4 11190.1 1222.05 2
-5 -9 4 11575.4 1155.58 1
5 -9 -4 9676.45 1144.99 3
9 5 -4 11323.3 1325.37 3
-5 -9 -4 11519.5 1296.93 9
9 -5 -4 10479.7 1272.83 3
-5 -9 4 11341 1164.69 9
-5 9 4 8146.74 1147 8
5 9 4 12419.6 1375.5 8
-9 -5 4 13352.7 1382.06 1
-9 5 -4 12589.4 1494.12 7
-5 9 -4 12521.6 1388.65 7
5 9 -4 10307 1221.4 7
-5 -9 -5 20441.1 1750.96 9
-5 9 5 21088.8 1728.13 1
5 9 5 20237.2 1870.48 8
-9 5 -5 21334.6 2031.01 7
9 -5 5 19520.4 1732.95 2
-9 -5 -5 19953.9 1656.78 9
9 5 -5 23862.9 1984.2 3
9 -5 -5 22270.5 1935.93 3
5 -9 -5 18594.3 1684.99 3
-5 9 5 19202.1 1846.07 8
-9 5 5 20290.6 1723 1
-5 -9 5 19174.6 1563.14 1
-9 -5 5 21415.3 1850.64 1
-5 9 -5 21149 1917.88 7
5 9 -5 17302.4 1576.75 7
-9 5 6 15429.7 1615.96 1
9 -5 -6 17616.5 1810.69 3
-5 9 6 16563 1676.35 1
9 5 6 17893.2 1417.26 5
9 5 -6 16605.4 1754.38 3
5 -9 6 14063.2 1199.28 5
-5 -9 -6 14395.9 1519.24 9
-9 -5 -6 14806.2 1458.75 9
5 -9 -6 16379.6 1609.56 3
-9 -5 6 19232.1 1840.96 1
-5 9 -6 17142.2 1780.14 7
-5 9 6 16370.2 1736.18 8
5 9 6 17117.5 1817.24 8
-9 5 -6 17224 1941.51 7
5 9 -6 14347.2 1459.22 7
-9 5 6 14878.7 1151.43 4
5 -9 -7 6631.98 778.32 6
-5 9 7 9641.13 1351.25 1
-9 5 7 10224.9 1411.08 1
9 5 7 9812.38 1097.98 5
9 -5 7 7953.34 922.891 5
9 5 -7 11027.2 1480.44 3
5 -9 7 8260.59 963.328 5
5 -9 -7 8487.55 1200.94 3
-5 -9 -7 8742.95 1225.73 9
9 -5 -7 9597.43 1390.08 3
-5 9 7 8392.46 1343.81 8
5 9 7 7993.95 1329.62 8
-9 5 -7 9451.92 1482.38 7
-5 9 -7 9113.19 1405.28 7
-5 -9 7 8606.69 898.594 4
-9 5 7 9645.87 995.512 4
9 -5 -7 6694.46 767.01 6
-9 -5 7 9800.33 1425.25 1
-9 -5 8 5667.35 1129.07 1
-5 9 8 6472.87 1168.52 1
-5 -9 8 6230.75 891.748 5
9 5 8 5185.7 854.883 5
9 -5 8 5046.01 781.552 5
-5 -9 -8 4718.22 965.624 9
5 -9 8 5233.71 815.423 5
9 5 -8 4319.6 966.58 3
-5 -9 8 4665.37 698.059 4
5 9 8 4355.14 1123.45 8
-5 9 8 4875.92 1158.54 8
-9 -5 8 4844.93 668.135 4
-9 5 8 5162.5 741.258 4
-5 9 8 5547.84 761.848 4
-9 5 8 5601.57 1080.68 1
-9 5 -8 4992.72 1075.16 7
9 -5 -8 3306.46 805.063 3
-5 9 -8 5048.18 1120.65 7
-9 5 9 4555.9 1064.53 1
9 -5 9 3748.44 712.396 5
9 5 9 4084 789.268 5
-5 -9 9 3864.64 758.913 5
-9 5 9 4264.57 696.121 4
-9 5 -9 4256.72 1114.26 7
-9 -5 9 1852.8 577.455 1
-5 9 9 4241.14 716.528 4
5 9 9 2385.51 784.62 8
-9 -5 9 3713.1 604.992 4
5 -9 -9 4658.54 1058.72 9
-5 9 9 2751.75 738.655 1
9 5 -9 3095.29 910.354 3
5 -9 9 3740.43 725.3 5
9 -5 -9 4126.04 1038.38 3
-5 9 9 2876.42 890.533 8
-5 9 -9 3081.07 886.998 7
-5 -9 9 3919.64 684.455 4
-9 -5 10 21.4057 221.801 4
5 -9 10 -165.454 338.049 5
-9 5 10 5.1929 324.725 4
9 -5 10 326.575 331.33 5
-5 9 10 707.513 378.844 4
-5 -9 10 -75.6315 265.279 5
-5 -9 10 314.873 265.095 4
-9 -5 11 -35.6208 207.59 4
-9 5 11 -226.189 266.519 4
5 -9 11 444.018 361.012 5
-5 9 11 -221.443 234.227 4
9 -5 11 -570.795 396.469 5
-5 -9 11 267.612 226.19 5
-5 -9 11 -258.427 279.288 4
-9 -5 12 215.64 240.714 4
-9 5 12 483.327 279.079 4
5 -9 12 395.107 339.816 5
-5 9 12 830.978 360.355 4
-5 -9 12 949.635 390.045 5
9 -5 12 1030.4 377.63 5
-5 -9 12 194.529 194.916 4
-9 5 13 1105.94 337.965 4
-5 9 13 564.526 279.626 4
-5 -9 13 853.392 357.888 5
5 -9 13 447.339 286.922 5
9 -5 13 911.061 369.076 5
-9 -5 13 1055.7 333.65 4
-9 5 14 974.321 296.505 4
-5 9 14 313.761 194.647 4
9 -5 14 709.012 332.203 5
-9 -5 14 347.537 206.425 4
5 -9 14 494.438 251.239 5
-9 5 15 317.541 187.14 4
9 -5 15 88.2803 182.166 5
6 9 0 -304.203 350.216 7
9 -6 0 230.767 324.323 3
-9 -6 0 127.304 316.33 9
6 -9 0 17.2116 305.918 3
-6 -9 0 15.9367 278.826 9
9 6 0 209.079 241.582 2
9 -6 0 72.1297 324.417 2
-9 6 0 293.028 301.599 7
-6 9 0 259.993 315.587 7
6 9 -1 227.032 310.636 7
9 -6 -1 315.838 336.125 3
9 -6 1 303.331 356.811 3
6 -9 -1 364.242 432.94 3
6 -9 1 381.565 318.184 3
-9 6 1 -283.241 226.12 7
-9 6 1 300.791 238.269 1
-9 -6 1 -279.178 364.315 9
6 9 1 -530.583 352.423 8
9 -6 1 124.257 287.328 2
9 6 1 35.6881 249.812 2
-6 -9 1 26.5876 261.278 9
9 6 -1 291.997 235.002 3
-6 -9 -1 200.109 345.406 9
-9 -6 -1 106.172 308.91 9
-6 9 1 38.7602 234.54 8
-9 6 -1 -59.9451 311.785 7
-6 9 -1 -9.28483 276.145 7
-6 9 1 180.401 320.706 7
9 -6 -2 105.16 299.204 3
6 9 -2 -128.887 231.304 7
6 -9 -2 -96.0238 325.972 3
-6 -9 2 -273.203 281.592 9
9 -6 2 -7.18144 235.496 3
9 -6 2 176.487 268.659 2
9 6 2 194.271 290.842 2
-6 -9 -2 233.13 272.979 9
-6 9 2 -0.85393 170.576 7
-9 6 2 -89.1186 193.399 1
-9 -6 2 147.069 374.336 1
-9 6 -2 105.337 318.941 7
-9 -6 -2 -52.0221 259.008 9
-9 -6 2 -698.394 368.574 9
-6 9 2 58.7884 188.254 1
9 6 -2 -114.164 289.79 3
-6 9 2 -461.342 304.616 8
6 9 2 -86.9949 248.367 8
-6 9 -2 -33.274 266.199 7
6 9 -3 626.849 308.809 7
6 -9 -3 418.686 349.922 3
-6 9 3 327.363 250.088 1
-9 -6 3 -4.33715 314.931 1
6 9 3 548.027 365.772 8
-6 -9 3 372.296 341.291 1
-9 6 3 343.364 265.212 1
9 -6 3 12.0355 309.187 2
9 6 3 616.152 298.644 2
-9 -6 -3 671.144 389.195 9
-6 -9 3 502.384 339.717 9
-9 -6 3 -48.6446 277.951 9
9 6 -3 458.927 252.847 3
-6 9 3 392.559 282.428 8
-6 -9 -3 603.195 348.146 9
-9 6 -3 344.477 316.044 7
-6 9 -3 -55.5884 412.792 7
9 -6 -3 827.205 390.937 3
6 9 -4 1316.52 467.631 7
6 -9 -4 1194.63 447.598 3
9 -6 -4 759.904 360.677 3
-9 -6 -4 959.626 432.862 9
-6 -9 4 487.009 362.373 9
-9 -6 4 919.245 437.709 1
9 6 4 1768.23 519.765 2
6 9 4 1448.64 527.208 8
-6 -9 4 991.611 297.163 1
-6 -9 -4 1626.61 530.559 9
9 -6 4 1769.34 523.516 2
-9 6 4 1442.6 480.722 1
-9 6 -4 1669.11 676.35 7
-9 -6 4 1712.68 481.189 9
-6 9 4 1354.28 452.01 1
9 6 -4 595.186 401.91 3
-6 9 4 869.672 427.477 8
-6 9 -4 1272.43 565.985 7
6 9 -5 963.19 485.95 7
-9 6 5 334.285 341.671 1
-9 -6 -5 198.735 333.224 9
-6 -9 5 403.768 280.532 1
-6 9 5 -71.8423 255.943 1
9 6 -5 -245.06 326.414 3
-6 -9 -5 921.951 484.119 9
-9 -6 5 206.931 321.883 1
-6 9 5 394.533 296.54 8
6 9 5 390.839 374.994 8
6 -9 -5 -420.804 519.962 3
-9 6 -5 931.412 532.166 7
-6 9 -5 -589.255 515.986 7
9 -6 -5 481.764 412.082 3
-6 -9 -6 -168.23 314.41 9
-9 -6 -6 114.161 294.876 9
9 -6 -6 -206.371 173.969 6
6 -9 -6 6.2738 207.944 6
9 -6 6 162.947 242.335 5
9 6 -6 137.985 416.268 3
6 -9 6 -94.0729 231.753 5
-9 6 6 17.8007 297.687 1
-6 9 6 436.113 349.278 8
6 9 6 332.795 359.665 8
-6 9 6 1158.36 474.464 1
-9 -6 6 432.966 428.308 1
-6 -9 6 -145.584 345.297 1
-9 6 -6 402.427 343.489 7
-6 9 -6 585.393 511.873 7
9 -6 -6 590.306 397.674 3
6 -9 -6 383.564 367.278 3
-9 -6 7 107.444 381.723 1
6 -9 -7 -204.627 280.349 3
9 -6 -7 119.264 215.827 6
6 -9 -7 -86.4659 193.896 6
-9 6 7 537.766 337.682 4
9 -6 7 295.335 211.859 5
9 -6 -7 -97.5845 422.983 3
6 -9 7 100.927 232.187 5
9 6 -7 591.447 452.499 3
6 9 7 160.993 458.374 8
-6 9 7 -469.591 440.01 8
-6 -9 -7 -22.3411 263.604 9
-9 6 7 129.936 372.402 1
-9 6 -7 318.593 409.416 7
-6 9 -7 -249.639 463.077 7
-6 9 7 79.3831 367.168 1
-6 -9 7 -15.2508 226.894 4
-9 6 8 -218.51 401.149 1
-6 9 8 -15.3643 344.838 1
-9 -6 8 314.109 473.743 1
-9 6 8 27.2011 249.446 4
6 9 8 -132.167 364.651 8
-6 9 -8 272.218 404.363 7
-6 9 8 601.293 305.548 4
9 -6 8 -421.01 350.801 5
-6 -9 -8 -177.718 356.426 9
9 6 -8 998.804 639.091 3
6 -9 8 -877.02 445.465 5
-6 9 8 35.0094 522.252 8
-6 -9 8 -112.524 311.325 5
-9 6 -8 37.4699 463.876 7
-6 -9 8 -54.4751 299.292 4
9 -6 -8 -501.849 411.16 3
-9 6 9 45.607 255.229 4
-6 9 9 -144.623 237.451 4
-9 -6 9 266.499 194.292 4
9 -6 9 213.035 245.089 5
6 -9 9 567.506 385.39 5
-6 -9 9 -362.37 307.204 5
-6 -9 9 -187.294 290.587 4
-9 -6 10 556.702 282.429 4
6 -9 10 334.196 331.52 5
-9 6 10 -21.6985 290.732 4
-6 9 10 -61.6912 256.184 4
9 -6 10 71.4372 243.015 5
-6 -9 10 226.828 282.151 4
-6 -9 10 68.2803 250.685 5
-9 6 11 -15.4445 242.076 4
-6 9 11 230.075 239.674 4
9 -6 11 177.427 294.032 5
6 -9 11 173.008 245.922 5
-6 -9 11 265.093 235.985 5
-6 -9 11 263.764 313.602 4
-9 -6 11 -211.011 223.058 4
-9 6 12 82.1476 193.205 4
-6 9 12 -533.655 319.144 4
-6 -9 12 -361.414 266.243 5
9 -6 12 276.701 322.053 5
-6 -9 12 -122.198 263.634 4
6 -9 12 -183.973 228.558 5
-9 -6 12 89.4899 184.738 4
-9 6 13 379.461 252.513 4
-6 9 13 -88.4558 201.167 4
6 -9 13 -311.601 322.604 5
9 -6 13 -435.423 295.987 5
-9 -6 13 263.682 229.788 4
-9 6 14 -8.42382 156.325 4
-6 9 14 -204.376 162.904 4
9 -6 14 -247.1 246.945 5
6 -9 14 37.2061 168.871 5
-9 -6 14 -314.823 182.858 4
7 9 0 78991.7 3046.55 8
9 7 0 94553.5 3210.9 2
9 -7 0 84205.7 3076.76 2
7 -9 0 96214.5 3584.43 3
-7 -9 0 96990.5 3507.7 9
-9 -7 0 93996.4 3369.31 9
-7 9 0 80589.4 3037.41 8
9 -7 0 94533.4 3568.52 3
-9 7 0 89930.9 3349.44 7
-7 9 0 94097.7 3474.16 7
9 7 -1 63371.1 2643.85 2
9 -7 -1 56428.8 2588.95 2
9 -7 1 55135.8 2477.43 2
9 7 1 67117.5 2699.54 2
-9 7 1 59562.1 2578.3 7
-7 -9 -1 66675 2935.3 9
9 -7 -1 60789.2 2946.83 3
9 7 -1 65302.8 2503.41 3
9 -7 1 59900.3 2917.61 3
-7 -9 1 70094.8 2955.54 9
-9 -7 -1 62995.3 2845.25 9
-9 -7 1 66346.6 2884.11 9
7 -9 -1 60424.2 2867.8 3
7 -9 1 60690.5 2912.82 3
-7 9 1 52574.6 2483.67 8
7 9 1 55485.7 2551.2 8
-9 7 -1 61792.6 2905.06 7
-7 9 -1 65212.7 2973.06 7
-7 9 1 58397.4 2647.37 7
7 9 -1 66864.1 2968.9 7
-9 7 2 11914.9 1111.73 1
7 -9 -2 13742.8 1414.34 3
9 -7 2 13328.1 1350.2 3
9 -7 2 10197.7 1082.06 2
9 7 2 12056.1 1181.48 2
9 -7 -2 13178 1410.01 3
-7 -9 -2 12087.2 1296.07 9
9 7 -2 11730.8 1162.04 3
-9 -7 2 14324.5 1460.2 1
-9 -7 -2 12949.4 1299.15 9
-7 -9 2 13008.5 1307.4 9
-9 -7 2 13953.6 1371.57 9
-7 9 2 12351.7 1241.3 8
7 9 2 10881.2 1168.88 8
-9 7 -2 13628.9 1456.09 7
-7 9 -2 14268.4 1463.96 7
-7 9 2 12242.7 1181.02 7
7 9 -2 10991.5 1244.15 7
-9 7 -3 6010.79 1079.05 7
-7 9 3 6507.58 870.823 1
9 -7 -3 6396.15 1086.66 3
9 -7 3 5845.2 874.91 2
9 7 3 6106.82 947.34 2
7 -9 -3 7919 1131.89 3
9 7 -3 7489.64 1082.1 3
-7 -9 -3 6006.1 964.141 9
-9 -7 -3 8007.8 1107.55 9
-7 -9 3 7958.23 1057.58 9
7 9 -3 7142.27 1035.22 7
-9 -7 3 7643.78 1058.99 9
-9 7 3 5008.74 792.37 1
-7 -9 3 5942 980.795 1
-7 9 3 6665.92 993.03 8
7 9 3 6572.45 1014.11 8
-9 -7 3 7948.6 1115.61 1
-7 9 -3 6205.62 1035.04 7
7 9 -4 2204 654.564 7
9 7 4 1760.66 636.257 2
7 -9 -4 1854.58 555.573 3
-9 7 4 1902.28 606.201 1
-7 -9 -4 2365.44 687.148 9
-9 -7 4 3561.74 800.913 1
-7 -9 4 2878.63 706.526 1
-9 -7 -4 3083.99 741.84 9
9 -7 4 1192.06 455.943 2
-9 7 -4 2545.55 767.892 7
-7 -9 4 3730.15 768.459 9
-7 9 4 2020.99 536.526 1
-7 9 4 2029.46 606.604 8
9 7 -4 2879.16 823.268 3
7 9 4 1559.38 573.782 8
-9 -7 4 2902.48 724.016 9
-7 9 -4 2331.12 697.913 7
9 -7 -4 1913.7 548.133 3
9 -7 -5 11957.3 1012.61 6
7 -9 -5 12826.1 1040.66 6
-9 7 5 13951.1 1494.38 1
-7 9 5 14994.4 1537.14 1
7 -9 -5 14732.5 1600.43 3
9 7 -5 13590.5 1592.68 3
-7 -9 -5 14233.9 1514.4 9
-9 -7 -5 13284.1 1460.81 9
9 -7 -5 14794.4 1649.62 3
-9 -7 5 14066.8 1540.99 9
-7 9 5 12104.3 1470.5 8
7 9 5 14544.8 1557.1 8
-7 -9 5 13300.6 1448 1
-9 -7 5 15838.8 1646.87 1
-9 7 -5 16031.7 1842.72 7
-7 9 -5 15483.6 1787.91 7
7 9 -5 12166.6 1355.67 7
9 -7 -6 22179.3 1396.03 6
7 -9 -6 22853.1 1432.02 6
-7 9 6 25235.1 2151.23 1
7 -9 -6 23526.9 2097.76 3
9 7 -6 30740.8 2437.72 3
9 -7 6 19562.3 1425.41 5
7 -9 6 21198.5 1496.46 5
-7 -9 -6 26035.6 2110.13 9
9 -7 -6 26808.9 2319.41 3
-9 7 6 25385.6 2110.07 1
-9 7 -6 29834.2 2545.78 7
-7 9 6 24101.1 2122.48 8
7 9 6 23577.7 2099.32 8
-7 9 -6 24994 2358.69 7
-9 -7 6 26615.8 2236.98 1
-7 -9 6 25867.3 2108.69 1
-9 -7 -6 23299.1 2004.93 9
7 -9 -7 16943.4 1276.42 6
-9 7 7 19920.5 2000.34 1
-7 9 7 20796.3 2034.96 1
7 -9 -7 17275.8 1842.34 3
9 7 -7 21668.1 2161.95 3
9 -7 7 21990.4 1538.8 5
7 -9 7 19895 1483.39 5
-7 -9 -7 18361 1825.26 9
-9 -7 -7 14302 1569.34 9
9 -7 -7 20097.9 2059.41 3
9 -7 -7 17690.9 1304.81 6
7 9 7 15176.1 1851.09 8
-7 9 7 15861.3 1893.79 8
-9 7 -7 21499.1 2286.36 7
-7 9 -7 20084.4 2170.83 7
-9 7 7 22551.2 1545.1 4
-9 -7 7 19048.6 1984.44 1
7 -9 -8 4723.26 982.552 3
-7 -9 8 8315.84 1052.11 5
-9 -7 8 7167.49 1248.99 1
-9 7 8 7443.55 1280.51 1
-7 9 8 8730.86 1370.06 1
9 -7 8 7471.94 954.074 5
7 -9 8 8085.29 1007.24 5
-7 9 8 7962.18 945.553 4
7 9 -8 6909.48 1219.38 3
9 7 -8 6866.09 1289.1 3
7 9 8 4767.58 1084.58 8
-7 9 8 6277.85 1230.17 8
-9 7 -8 11827.8 1768.64 7
-7 -9 8 7913.8 910.899 4
-9 7 8 8398.11 999.146 4
-7 9 -8 7600.01 1441.99 7
9 -7 -8 6232.79 1187.65 3
7 -9 9 -32.2957 291.525 5
-9 7 9 235.667 233.322 4
-7 9 9 -586.181 349.106 4
9 -7 9 -232.461 367.55 5
-7 -9 9 -10.0409 229.701 5
-7 -9 9 309.25 266.194 4
-9 -7 9 272.669 250.459 4
-7 -9 10 1945.27 528.387 5
-9 7 10 1744.32 454.277 4
-7 9 10 1379.36 446.575 4
9 -7 10 1843.71 517.65 5
-9 -7 10 1774.68 439.148 4
7 -9 10 1599.96 490.777 5
-7 -9 10 1414.95 431.471 4
7 -9 11 71.7075 261.214 5
-9 7 11 237.946 280.539 4
-7 9 11 216.132 249.895 4
9 -7 11 883.137 379.389 5
-7 -9 11 518.091 335.593 5
-7 -9 11 524.249 300.378 4
-9 -7 11 44.5329 194.314 4
-9 7 12 978.439 379.427 4
-7 9 12 1133.45 342.87 4
7 -9 12 679.14 330.872 5
-7 -9 12 865.147 300.588 4
9 -7 12 947.491 392.315 5
-9 -7 12 776.737 270.182 4
-9 7 13 1088.76 315.713 4
-7 9 13 719.694 275.059 4
9 -7 13 607.185 326.106 5
7 -9 13 914.786 402.83 5
-9 -7 13 1175.17 337.416 4
-9 7 14 370.013 192.569 4
-7 9 14 642.834 226.35 4
7 -9 14 744.864 272.426 5
9 -7 14 622.443 274.488 5
-8 -9 0 -132.12 332.955 9
9 -8 0 -76.2174 300.492 3
8 -9 0 337.962 387.143 3
-9 -8 0 -60.8192 258.08 9
9 -8 0 158.745 297.384 2
9 8 0 -6.21222 192.682 2
-8 9 0 -180.937 217.231 8
-9 8 0 -163.298 270.261 7
-8 9 0 139.127 272.546 7
9 -8 -1 1735.7 567.957 3
-8 -9 1 1589.02 508.236 9
8 -9 -1 1196.32 453.528 3
9 -8 1 790.234 341.543 2
9 -8 1 1265.41 512.481 3
8 -9 1 1460.23 507.383 3
-8 9 1 1273.44 445.129 8
-9 -8 1 2101.2 598.755 9
9 8 -1 1456.93 428.35 2
9 -8 -1 1583.69 460.297 2
8 9 1 672.441 314.465 8
9 8 1 1486.67 452.014 2
-8 -9 -1 1121.61 461.676 9
-9 -8 -1 1490.65 523.856 9
-9 8 -1 2017.21 609.553 7
-8 9 -1 1458.36 534.335 7
-9 8 1 949.563 293.112 7
-8 9 1 1606.26 522.374 7
-8 9 2 2176.93 536.401 8
9 -8 -2 2295.53 639.525 3
8 -9 -2 3254.15 798.404 3
9 -8 2 2280.55 524.652 2
9 8 2 2563.61 599.058 2
9 8 -2 2816.38 627.735 3
-8 -9 2 2019.18 564.227 9
-9 -8 2 3017.17 747.158 1
-8 -9 -2 2709.06 685.746 9
-9 -8 -2 2433.91 600.19 9
-9 -8 2 2597.07 693.944 9
8 9 2 1947.5 564.476 8
9 -8 2 3013.72 718.673 3
-9 8 -2 3231.13 819.966 7
-8 9 -2 2500.34 698.361 7
9 -8 -3 4257.68 869.224 3
8 -9 -3 3121.44 717.604 3
-9 -8 3 4450.2 856.059 1
9 -8 3 3081.01 654.439 2
-8 -9 -3 4014.06 805.806 9
-9 -8 3 2994.22 721.624 9
-8 -9 3 3842.35 813.084 1
9 8 3 2424.76 583.838 2
-9 -8 -3 2982.69 731.271 9
-8 -9 3 2948.5 640.534 9
9 8 -3 3282.19 701.311 3
-8 9 3 2662.08 667.24 8
-9 8 -3 4155.98 907.638 7
8 9 3 2662.34 837.195 8
-8 9 -3 3391.98 822.81 7
9 -8 -4 -251.549 356.58 3
-9 8 4 328.979 308.76 1
8 -9 -4 985.406 427.951 3
-9 8 -4 216.221 406.648 7
-8 -9 -4 440.87 354.534 9
9 -8 -4 547.543 225.671 6
8 -9 -4 644.814 282.045 6
-8 -9 4 250.271 310.562 9
-8 9 4 -81.9735 311.411 1
-9 -8 4 694.422 367.869 1
-9 -8 -4 256.3 354.8 9
-8 9 4 976.668 553.182 8
-9 -8 4 804.345 457.813 9
9 8 -4 772.598 464.544 3
-8 -9 4 -323.91 376.126 1
8 9 4 1260.84 490.054 8
-8 9 -4 138.432 316.668 7
9 -8 -5 274.206 312.946 3
-9 8 5 -19.7307 265.758 1
9 -8 -5 -8.03219 209.238 6
8 -9 -5 -402.807 279.73 6
-8 9 5 89.1311 354.438 1
-8 -9 -5 -282.762 436.749 9
-9 -8 -5 -85.7232 310.785 9
-8 -9 5 -7.64485 276.591 9
-9 -8 5 -158.031 332.842 9
-8 -9 5 230.806 275.998 1
9 8 -5 -215.327 278.288 3
-9 -8 5 -644.12 604.188 1
8 -9 -5 284.496 300.953 3
-9 8 -5 699.595 496.199 7
-8 9 -5 714.574 567.993 7
9 -8 -6 1372.98 604.961 3
8 -9 -6 763.626 517.529 3
8 -9 6 1219.63 425.706 5
-9 8 6 841.008 366.882 1
-9 8 -6 1391.47 684.471 7
9 -8 -6 1005.32 248.812 6
8 -9 -6 997.144 370.636 6
-8 -9 6 2013.56 626.669 1
-8 -9 -6 826.489 381.87 9
-8 9 6 929.348 421.198 1
9 8 -6 1552.04 540.639 3
-9 -8 -6 888.147 485.856 9
8 9 -6 1463.18 571.021 3
-9 -8 6 2270.51 786.365 1
9 -8 6 1296.9 349.958 5
-8 9 -6 1080.75 543.184 7
9 -8 -7 361.86 417.256 3
-9 -8 -7 75.7777 398.282 9
-9 8 7 562.792 302.524 1
9 -8 -7 -144.594 215.205 6
8 -9 -7 7.70362 202.959 6
-9 8 7 -63.1416 287.513 4
-8 -9 -7 172.324 407.249 9
8 -9 -7 347.678 552.461 3
9 -8 7 1674.78 592.225 5
8 -9 7 240.037 269.459 5
8 9 -7 -169.303 454.972 3
-8 9 7 1126.28 578.222 1
9 8 -7 -131.273 494.652 3
-9 8 -7 1355.87 684.85 7
-8 9 -7 568.061 372.982 7
-9 -8 7 796.611 556.502 1
9 -8 -8 209.065 176.008 6
8 -9 -8 775.793 350.3 6
-9 8 8 930.988 384.248 4
8 -9 8 1143.59 403.441 5
-8 9 8 223.583 224.373 4
9 -8 8 731.955 384.729 5
-8 -9 8 399.878 383.426 5
-9 -8 8 609.295 261.84 5
-9 8 9 3168.66 639.851 4
-8 9 9 2462.1 572.443 4
8 -9 9 2144.4 554.622 5
9 -8 9 2040.19 551.029 5
-8 -9 9 1670.05 506.585 5
-8 -9 9 2000.85 477.114 4
8 -9 10 272.328 297.819 5
9 -8 10 333.371 253.157 5
-9 8 10 -157.49 281.677 4
-8 9 10 1098.84 411.199 4
-8 -9 10 930.14 377.162 5
-8 -9 10 316.299 276.582 4
-9 -8 10 817.096 395.898 4
-9 8 11 -60.7841 191.043 4
-9 -8 11 -3.484 201.737 4
-8 9 11 -157.402 239.558 4
8 -9 11 213.911 265.574 5
9 -8 11 -214.008 252.13 5
-8 -9 11 -28.4379 190.638 4
-9 8 12 -99.7211 207.949 4
-8 9 12 -58.7321 204.625 4
-9 -8 12 -182.474 209.621 4
9 -8 12 196.251 257.07 5
8 -9 12 8.58226 272.247 5
-9 8 13 -48.8711 177.401 4
-8 9 13 358.276 238.216 4
8 -9 13 -74.8171 220.848 5
9 -8 13 71.1404 232.2 5
-9 8 14 -71.7192 126.216 4
-8 9 14 -95.484 137.325 4
8 -9 14 18.8447 165.822 5
9 -8 14 113.376 190.093 5
-9 -9 0 59985 2955.4 9
9 -9 0 54702.1 2968.94 3
-9 9 0 52259.4 2822.61 7
9 -9 -1 42969.2 2644.07 3
-9 -9 -1 38604.6 2410.56 9
-9 -9 1 43165 2536.46 9
9 -9 1 41355.8 2625.44 3
-9 9 -1 40596 2589.5 7
-9 9 1 39148.1 2348.65 7
9 -9 -2 19869.5 1343.93 6
9 -9 -2 21238.1 1906.33 3
-9 -9 2 29273.4 2228.46 1
9 9 -2 23931 1816.99 3
-9 -9 -2 27154.6 2062 9
-9 -9 2 28371.7 2099.66 9
-9 9 -2 22845.9 2022.51 7
9 9 2 22484.2 1410.95 6
9 9 3 5525.26 722.349 6
9 9 -3 5635.63 747.466 6
-9 -9 3 5933.12 1009.97 9
9 -9 -3 5126.06 706.644 6
9 -9 -3 5887.54 1101.93 3
-9 -9 -3 5823.37 997.72 9
-9 -9 3 5762.76 1030.9 1
9 9 -3 5538.81 940.481 3
-9 9 -3 4300.46 975.188 7
9 9 -4 8565.5 882.112 6
9 9 4 7922.3 851.494 6
9 -9 -4 8381.7 897.1 6
9 -9 -4 8364.92 1328.6 3
9 9 -4 9665.12 1306.92 3
-9 -9 -4 9083.49 1273.88 9
-9 -9 4 9376.83 1263.28 9
-9 -9 4 8591.09 1227.6 1
-9 9 -4 10583.9 1499.55 7
9 9 -5 8079.35 859.752 6
9 -9 -5 8804.15 947.675 6
-9 9 5 7605.66 1166.96 1
9 9 -5 11624.2 1526.82 3
9 -9 -5 8553.67 1378.77 3
-9 -9 -5 10607 1387.28 9
-9 -9 5 10267.4 1368.08 9
9 9 5 8783.62 882.061 6
-9 -9 5 11075.8 1496.47 1
-9 9 -5 8834.85 1464.2 7
9 -9 -6 2371.99 748.7 3
9 -9 -6 4122.92 647.582 6
-9 9 6 4189.34 930.625 1
9 -9 6 4260.79 696.579 5
-9 -9 -6 3092.4 800.841 9
9 9 -6 4249.9 1039.19 3
-9 -9 6 4252.88 899.894 1
-9 9 -6 5378.48 1218.01 7
9 -9 -7 1521.82 749.594 3
9 -9 7 1329.56 424.016 5
9 -9 -7 1649.4 453.778 6
-9 9 7 2389.73 535.089 4
-9 9 7 1202.62 593.638 1
-9 -9 -7 1135.69 648.097 9
9 9 -7 193.824 291.268 3
-9 9 -7 3341.68 1034.38 7
9 -9 -8 359.074 308.485 6
-9 9 8 750.939 402.979 4
9 -9 8 451.326 360.396 5
-9 -9 8 77.2385 282.746 5
9 -9 9 795.607 381.937 5
-9 9 9 1781.96 501.935 4
-9 -9 9 1442.21 454.076 5
-9 9 10 938.629 365.96 4
9 -9 10 268.415 296.796 5
-9 9 11 -155.347 234.529 4
9 -9 11 -281.772 272.786 5
-9 -9 11 -39.6797 176.673 4
-9 9 12 210.956 215.877 4
9 -9 12 333.913 241.535 5
9 -9 13 206.972 205.199 5
-9 9 13 683.385 246.566 4
-9 9 14 258.147 144.357 4
9 -9 14 91.1119 132.014 5
0 -10 0 68176.9 2617.62 9
-10 0 0 68714.7 2727.61 9
10 0 0 64735.6 2496.62 3
-10 0 0 63200.5 2426.24 1
0 10 0 64401.3 2695.17 7
0 -10 -1 19019.5 1443.14 9
10 0 1 16935.1 1438.36 2
0 -10 1 17382.5 1302.5 9
-10 0 1 16393.6 1332.71 1
10 0 -1 18009.6 1386.55 3
10 0 1 16593.2 1217.38 3
-10 0 -1 17209.4 1393.93 9
0 10 -1 18018.5 1452.73 7
0 10 1 16618.7 1374.18 7
0 10 2 9198.93 1083.75 8
0 -10 2 8473.89 888.288 9
10 0 2 8401.75 1029.98 2
10 0 2 7250.92 758.054 3
10 0 -2 8741.1 1030.12 3
0 -10 -2 8634.34 1041.05 9
-10 0 -2 9023.01 1033.58 9
0 10 -2 8345.48 1013.73 7
0 10 2 8527.57 1000.02 7
-10 0 2 9758.74 1053.72 1
0 10 3 707.786 411.377 7
0 10 -3 215.956 346.205 7
0 -10 -3 456.02 343.095 9
0 -10 3 396.139 251.319 9
-10 0 -3 653.807 296.876 9
0 10 3 160.972 288.584 8
-10 0 3 897.359 460.812 1
10 0 3 628.519 426.228 2
10 0 -3 1089.21 382.307 3
0 10 -4 15950.8 1499.46 7
10 0 -4 15521 1520.03 3
0 -10 -4 16539.6 1501.21 9
10 0 4 16924.8 1528.1 2
0 10 4 14988.2 1478.28 8
-10 0 -4 16614.8 1314.24 9
-10 0 4 18487.4 1599.88 1
0 10 4 15486.9 1386.4 7
10 0 -5 26113.5 2092.47 3
10 0 5 26281.1 2043.34 2
0 -10 -5 29438.2 2113.59 9
0 10 5 27336.3 2163.76 8
0 10 -5 24806 1897.21 7
-10 0 5 29923.4 2152.6 1
10 0 6 19651.9 1385.54 5
0 -10 -6 21108.2 1861.96 9
0 10 6 20883.2 2019.26 8
10 0 -6 23537.9 2079.46 3
0 10 -6 20904.8 1833.14 7
0 -10 6 19966 1347.05 4
-10 0 6 25174.6 2085.9 1
-10 0 7 585.747 550.595 1
-10 0 7 520.945 285.758 4
0 10 7 272.897 200.937 4
10 0 7 1302.04 430.999 5
0 -10 -7 676.886 485.211 9
0 10 7 644.075 444.856 8
10 0 -7 1410.02 571.363 3
0 -10 7 1490.78 499.058 5
0 -10 7 1129.1 403.795 4
0 10 -7 927.076 496.577 7
-10 0 8 527.37 273.012 4
-10 0 8 -249.694 458.74 1
0 10 8 -42.9487 277.849 4
10 0 8 689.451 342.064 5
0 -10 -8 -81.307 295.11 9
0 10 8 -255.868 499.009 8
0 -10 8 158.329 365.005 5
10 0 -8 567.545 463.621 3
0 -10 8 131.911 244.315 4
0 10 -8 93.5685 298.097 7
-10 0 9 319.458 318.107 4
0 10 9 117.108 221.211 4
10 0 9 489.465 347.041 5
-10 0 9 1078.5 558.689 1
0 -10 -9 -513.09 421.659 9
-10 0 -9 -609.372 637.985 7
0 -10 9 107.445 256.042 5
0 10 9 61.6325 341.131 8
10 0 -9 -1237.06 595.244 3
0 -10 9 209.157 313.189 4
-10 0 10 2834.87 555.586 4
0 -10 10 2728.68 681.002 5
0 10 10 3096.3 580.642 4
10 0 10 2967.18 674.64 5
0 -10 10 2483.48 575.112 4
-10 0 11 1274.87 413.501 4
0 10 11 1064.12 361.98 4
10 0 11 1312.27 446.283 5
0 -10 11 911.882 413.127 5
10 0 12 720.085 346.385 5
-10 0 12 774.875 340.106 4
0 10 12 -134.143 196.582 4
0 -10 12 358.521 306.487 5
-10 0 13 375.478 206.37 4
10 0 13 238.116 247.554 5
0 -10 13 -10.319 267.348 5
0 -10 14 17.9325 221.165 5
-10 0 14 180.29 169.809 4
-10 -1 0 -15.8779 307.592 9
-10 -1 0 180.384 234.511 1
1 10 0 -119.415 279.991 7
-10 1 0 -31.879 277.558 1
1 -10 0 51.7896 247.952 9
-1 -10 0 412.58 348.398 9
10 1 0 104.326 231.216 3
10 -1 0 399.194 329.639 3
-1 10 0 -188.038 265.591 7
-10 1 1 6091.06 787.973 1
10 -1 1 7123.83 850.433 3
10 -1 1 6958.46 970.004 2
10 1 1 7444.93 963.411 2
-1 10 1 6920.29 918.257 7
10 1 1 6777.61 768.019 3
-1 -10 1 6593.2 847.537 9
1 -10 -1 6918.33 906.078 9
1 -10 1 7317.16 824.429 9
-1 -10 -1 7786.96 961.776 9
10 -1 -1 6841.2 912.7 3
-10 -1 -1 6499.77 857.431 9
-10 -1 1 6765.58 940.568 9
-10 1 -1 6347.45 734.938 1
-10 -1 1 7398.41 909.436 1
10 1 -1 6161.56 837.202 3
-1 10 -1 6150.03 875.097 7
1 10 -1 6489.21 895.579 7
1 10 1 6636.59 919.982 7
1 10 2 2419.23 584.74 7
10 -1 2 2423.26 480.89 3
-1 -10 2 1664.37 406.206 9
10 -1 -2 3056.91 681.742 3
10 -1 2 2419.87 627.952 2
10 1 2 2340.23 599.259 2
-10 -1 -2 2274.99 544.95 9
-10 -1 2 2254.69 520.918 1
1 -10 -2 3081.82 672.465 9
-1 -10 -2 2950.76 636.629 9
1 -10 2 2278.65 476.971 9
-10 1 2 2402.08 586.499 1
-1 10 2 1982.66 586.872 8
1 10 2 2230.44 568.074 8
10 1 -2 2629.01 611.508 3
-1 10 -2 2435.37 535.168 7
1 10 -2 2191.36 529.933 7
-1 10 2 2327.45 587.734 7
-1 10 3 771.248 268.559 7
1 10 3 642.621 417.076 7
1 -10 -3 587.012 309.014 3
-10 -1 3 715.458 390.182 1
10 1 3 1037.68 464.535 2
10 -1 3 412.471 312.409 2
1 10 3 644.676 369.533 8
-1 -10 -3 986.952 434.243 9
1 -10 -3 1001.18 446.839 9
-1 -10 3 129.44 176.241 9
-10 -1 -3 143.018 232.872 9
-1 10 3 133.384 295.215 8
-10 1 3 942.1 398.245 1
10 1 -3 607.545 381.351 3
10 -1 -3 523.243 334.073 3
-1 10 -3 577.375 388.549 7
1 10 -3 536.588 327.329 7
-1 10 4 524.063 364.847 7
-1 -10 -4 81.2178 306.718 9
1 -10 -4 390.096 315.685 3
1 10 -4 378.329 360.676 7
-10 -1 -4 91.5302 241.33 9
10 -1 4 53.6146 294.734 2
10 1 4 363.035 367.721 2
1 -10 -4 314.54 319.591 9
1 10 4 504.258 331.727 8
-1 10 4 288.125 345.891 8
-10 -1 4 334.166 314.11 1
10 1 -4 202.108 286.178 3
10 -1 -4 43.7564 308.321 3
-10 1 4 212.899 335.009 1
-1 10 -4 19.1888 349.92 7
1 -10 -5 5189.68 918.628 9
-1 10 5 6644.87 1097.35 8
10 -1 5 6957.17 1072.57 2
1 10 5 6701.09 1118.19 8
10 1 -5 6929.98 1078.84 3
-1 -10 -5 6250.56 1001.72 9
10 1 5 6372.09 1013.99 2
10 -1 -5 6197 1068.29 3
-10 -1 5 7740.18 1136.5 1
-10 1 5 6374.76 1053.92 1
-1 10 -5 5579.21 940.487 7
1 10 -5 5381.36 906.915 7
-10 1 6 1487.29 587.479 1
10 1 6 733.972 333.827 5
-1 10 6 1752.1 563.711 1
1 -10 -6 944.616 478.823 9
-1 -10 -6 1183.08 519.82 9
-10 -1 6 1694.09 619.192 1
1 10 6 676.872 531.985 8
-1 10 -6 1602.87 591.267 7
-1 10 6 1019.08 618.979 8
10 1 -6 1211.89 625.425 3
10 -1 -6 1129.11 588.813 3
1 -10 6 1138.16 393.009 5
-1 -10 6 1221.91 393.841 4
1 10 -6 964.26 415.976 7
-10 -1 7 -264.547 362.498 1
-1 10 7 578.852 428.472 8
-10 1 7 186.012 187.75 4
-10 1 7 -149.86 534.047 1
-1 10 7 -2.7869 298.247 1
10 1 7 142.586 186.238 5
10 -1 7 338.563 277.686 5
1 -10 -7 585.235 486.598 9
-1 -10 -7 -113.062 270.975 9
1 10 7 -351.601 523.171 8
10 1 -7 -350.934 315.097 3
1 -10 7 283.949 341.273 5
10 -1 -7 6.61192 395.657 3
-1 -10 7 256.93 250.632 5
-1 -10 7 -138.432 246.299 4
-1 10 -7 359.687 362.059 7
1 10 -7 -419.081 384.592 7
-10 -1 8 -105.589 207.847 4
10 1 8 -148.981 243.829 5
-10 1 8 285.522 240.8 4
1 -10 -8 254.223 402.697 9
-10 -1 8 -602.208 604.129 1
1 10 8 40.87 407.095 8
-1 10 8 -197.295 231.078 4
-10 1 8 288.508 590.978 1
10 -1 8 222.35 281.282 5
-1 -10 -8 -455.708 503.618 9
-1 10 8 -342.441 382.194 8
1 -10 8 3.11335 278.121 5
-1 -10 8 167.725 280.519 5
10 1 -8 -597.861 499.946 3
10 -1 -8 313.514 327.091 3
1 -10 8 -37.8179 218.294 4
-1 -10 8 -262.505 267.273 4
-1 10 -8 -97.4897 403.787 7
1 -10 -9 1169.75 560.101 9
-10 -1 9 866.916 323.397 4
-10 1 9 685.032 304.938 4
10 1 9 532.711 290.458 5
-1 10 9 964.755 388.545 4
-1 -10 9 846.833 359.528 4
-10 1 9 1045.96 597.774 1
-10 -1 9 758.656 478.548 1
10 -1 9 684.891 354.552 5
-1 -10 -9 90.5472 334.77 9
1 -10 9 888.352 440.982 5
-1 -10 9 933.721 473.768 5
1 10 9 1579.52 856.891 8
-1 10 9 1054.39 692.563 8
10 1 -9 1452.39 763.317 3
10 -1 -9 1089.84 550.311 3
1 -10 9 1184.07 400.408 4
-10 1 -9 316.426 451.952 7
-10 -1 10 422.756 260.754 4
-10 1 10 360.95 308.609 4
-1 10 10 750.682 301.844 4
1 -10 10 1594.37 502.053 5
10 1 10 769.037 399.88 5
10 -1 10 217.972 227.366 5
-1 -10 10 113.083 274.212 5
-1 -10 10 547.255 314.435 4
-10 -1 11 -65.2638 199.693 4
-10 1 11 368.985 227.32 4
-1 10 11 -88.7588 196.791 4
10 -1 11 -72.7258 287.631 5
1 -10 11 -57.3352 328.699 5
-1 -10 11 -133.531 291.473 5
10 1 11 -328.326 334.798 5
-1 -10 11 149.648 247.27 4
1 -10 12 223.158 237.253 5
-1 10 12 -262.854 198.462 4
-10 -1 12 -417.11 273.793 4
10 -1 12 260.584 291.1 5
10 1 12 295.522 297.804 5
-10 1 12 197.643 209.907 4
-1 -10 12 298.568 238.272 5
-10 -1 13 -119.961 234.472 4
-10 1 13 74.749 191.89 4
-1 10 13 -210.318 198.453 4
10 -1 13 127.006 262.072 5
10 1 13 33.0966 222.023 5
-1 -10 13 127.401 227.464 5
1 -10 13 330.753 259.783 5
-10 1 14 93.3086 159.914 4
10 -1 14 337.818 247.345 5
-1 -10 14 190.39 190.574 5
1 -10 14 36.5775 200.176 5
-10 -1 14 -183.794 175.718 4
-2 10 0 15617.1 1381.05 7
-10 2 0 15291.7 1232.63 1
10 -2 0 17295.1 1392.25 3
2 -10 0 18634.8 1386.15 9
10 2 0 16684.8 1229.19 3
-2 -10 0 16648.3 1316.76 9
-10 -2 0 16097.6 1330.42 9
2 10 0 15204.7 1338.11 7
10 -2 1 19201.7 1563.79 2
10 2 1 19756.8 1564.39 2
10 2 -1 18177.2 1348.39 3
10 -2 1 18346.2 1387.21 3
2 -10 -1 18480.3 1465.06 9
2 -10 1 17341.8 1288.55 9
-2 -10 -1 18634.4 1445.85 9
-2 -10 1 17565.8 1348.19 9
10 -2 -1 19146.2 1485.31 3
10 2 1 18761.7 1227.3 3
-10 -2 -1 16340.7 1353.4 9
-10 -2 1 19969.1 1523.34 9
-10 2 -1 17067.7 1200.45 1
-10 -2 1 18367 1426.82 1
-10 2 1 19464.2 1417.22 1
-2 10 -1 18751.3 1484.44 7
-2 10 1 18353.4 1467.85 7
2 10 -1 17367 1440.54 7
2 10 1 17581.5 1433.37 7
10 2 -2 5406.1 798.518 3
2 -10 2 4286.99 643.139 9
-10 -2 2 4977.28 826.561 9
10 -2 -2 5513.13 855.491 3
2 -10 -2 5750.5 888.202 9
-2 10 2 4641.76 824.931 8
10 -2 2 5390.6 859.628 2
10 2 2 5025.33 833.982 2
-2 -10 -2 5598.27 839.029 9
-2 -10 2 4595.08 688.387 9
-10 -2 -2 5762.88 847.662 9
10 -2 2 4707.91 690.952 3
2 -10 -2 4730.82 797.125 3
-10 2 -2 4291.69 599.692 1
2 10 2 4259.66 756.528 7
-10 -2 2 5088.8 801.74 1
2 10 2 5691.06 917.672 8
-10 2 2 5595.15 803.096 1
-2 10 2 5082.81 775.888 7
-2 10 -2 4563 792.173 7
2 10 -2 4991.05 803.475 7
-2 10 3 370.664 355.077 7
2 10 3 501.202 263.637 7
2 -10 -3 664.844 401.051 3
10 -2 3 219.968 162.489 3
10 -2 3 -182.319 285.517 2
-10 2 -3 402.596 287.122 1
2 10 3 -84.4221 340.688 8
10 2 3 110.322 303.184 2
-2 -10 3 301.303 234.795 9
-10 -2 3 445.352 332.66 1
-10 -2 -3 279.884 247.521 9
-2 10 3 114.825 374.144 8
-2 -10 -3 176.536 299.761 9
10 2 -3 476.818 308.787 3
10 -2 -3 186.046 324.634 3
-10 2 3 346.27 296.37 1
-2 10 -3 398.2 389.896 7
2 10 -3 585.124 318.701 7
-10 2 4 3729.82 768.327 1
-2 10 4 2353.06 581.953 7
-10 -2 -4 2363.4 537.526 9
10 -2 4 2892.38 673.586 2
2 -10 -4 2650.68 588.55 3
-2 10 4 1836.15 498.669 1
-10 -2 4 3228.88 762.976 1
10 2 4 2974.16 677.213 2
2 10 -4 2645.73 640.841 7
-2 -10 -4 3054.37 706.231 9
-2 10 4 1683.59 464.596 8
2 10 4 1720.88 505.303 8
10 2 -4 2501.85 605.896 3
10 -2 -4 1503.69 423.489 3
-2 10 -4 2704.11 683.009 7
-2 -10 -5 7705.45 1081.47 9
10 -2 5 8779.35 1224.22 2
10 2 5 8123.23 1154.54 2
10 2 -5 10323.1 1295.16 3
-2 10 5 7867.75 1040.69 1
10 -2 -5 7801.61 1146.49 3
2 -10 -5 7466.23 1097.37 9
-10 -2 -5 6856.39 933.066 9
2 -10 -5 7077.03 952.21 3
-2 10 5 7962.7 1226.25 8
2 10 5 10267.8 1357.37 8
-2 10 -5 7919.72 1155.33 7
2 10 -5 7646.3 1077.2 7
-10 -2 5 9804.45 1250.65 1
-10 2 5 8839.81 1226.73 1
-10 2 6 7342.75 1183.8 1
-10 -2 6 6398.81 1145.29 1
-2 10 6 6483.27 1065.44 1
10 2 6 5866.44 821.294 5
10 -2 6 5842.37 768.447 5
2 -10 6 6827.98 866.342 5
10 -2 -6 6831.62 1166.44 3
-2 -10 -6 7147.3 1094.29 9
2 -10 -6 6304.66 1070.55 9
2 10 6 7364.07 1220.1 8
-2 10 6 6756.52 1143.97 8
10 2 -6 8048.68 1247.97 3
-2 -10 6 5520.86 716.772 4
2 10 -6 5187.85 923.96 7
-2 10 -6 6687.03 1085.51 7
-10 2 7 7797.21 1259.38 1
-2 10 7 7732.14 1186.03 1
-2 -10 7 8706.87 1047.31 5
10 2 7 7067.12 909.724 5
10 -2 7 7947.36 933.723 5
2 -10 7 8404.21 1002.08 5
-2 -10 -7 6786.44 1119.49 9
2 -10 -7 6664.06 1117.23 9
-2 10 7 7108.58 1260.28 8
2 10 7 6887.01 1270.99 8
10 2 -7 6768.48 1221.96 3
10 -2 -7 7105.5 1248.72 3
-2 -10 7 7107.38 850.377 4
-10 2 7 6096.12 744.62 4
-2 10 -7 6490.94 1127.18 7
-10 -2 7 7602.83 1257.69 1
2 10 -7 5537.19 996.516 7
-10 -2 8 3813.15 582.975 4
-10 -2 8 4908.92 1024.44 1
2 -10 -8 4006.92 925.323 9
10 -2 8 3688.41 681.902 5
-10 2 8 4516.42 1080.24 1
10 2 8 3612.9 682.668 5
-2 -10 -8 3326.64 878.513 9
2 -10 8 4484 810.974 5
2 10 8 4689.21 1214.35 8
-2 10 8 2577.33 777.923 8
10 2 -8 3593.7 951.701 3
-2 -10 8 4099.38 767.955 5
10 -2 -8 4605.49 1067.71 3
-10 2 8 4394.3 666.827 4
-2 10 8 4871.75 730.681 4
-10 2 -8 5159.1 1147.01 7
-2 -10 8 4414.33 689.094 4
-2 10 -8 2824.82 786.875 7
-2 10 8 5494.79 1065.3 1
-10 -2 9 1353.85 401.031 4
10 2 9 1386.96 474.361 5
-10 2 9 1970.79 463.819 4
2 10 9 1801.86 831.861 8
-2 10 9 1415.56 448.336 4
-10 -2 9 915.603 435.394 1
10 -2 9 1567.02 523.911 5
2 -10 -9 991.161 461.12 9
-2 -10 -9 392.867 262.936 9
-10 2 9 1715.74 735.067 1
2 -10 9 1110.41 495.957 5
-2 -10 9 1592.22 550.132 5
-2 10 9 1091.74 766.166 8
10 2 -9 2704.48 851.069 3
-2 10 9 1242.65 544.056 1
10 -2 -9 1254.13 618.047 3
-10 2 -9 1814.43 738.147 7
-2 -10 9 1427.61 427.136 4
10 2 10 -306.925 305.778 5
-10 -2 10 128.351 192.868 4
-10 2 10 -177.941 269.947 4
-2 10 10 -10.3937 251.397 4
10 -2 10 38.1833 258.797 5
2 -10 10 -132.002 355.875 5
-2 -10 10 639.145 409.021 5
-2 -10 10 -333.465 303.729 4
-10 -2 11 416.945 278.761 4
10 2 11 -99.2982 307.563 5
-10 2 11 -91.9902 221.14 4
-2 10 11 -175.8 255.946 4
-2 -10 11 -287.259 350.964 5
2 -10 11 234.33 308.608 5
10 -2 11 -301.886 315.901 5
-2 -10 11 -467.453 318.866 4
-10 2 12 678.282 333.963 4
-2 10 12 395.249 195.919 4
2 -10 12 -105.806 261.538 5
10 2 12 -192.812 244.596 5
-2 -10 12 532.714 335.03 5
-10 -2 12 168.518 222.575 4
10 -2 12 556.536 314.277 5
-10 -2 13 97.8507 208.336 4
-10 2 13 109.28 199.695 4
-2 10 13 432.563 240.332 4
10 -2 13 -125.541 227.76 5
-2 -10 13 227.729 264.489 5
2 -10 13 172.981 231.288 5
-2 10 14 -43.7651 115.64 4
10 -2 14 140.753 202.858 5
2 -10 14 -34.8745 186.826 5
-2 -10 14 333.578 219.524 5
-10 2 14 -204.17 164.107 4
-10 -2 14 -273.586 219.558 4
3 10 0 175.639 259.3 7
10 3 0 -56.0183 294.637 2
10 -3 0 310.742 343.368 2
-10 -3 0 0.90195 262.204 9
3 -10 0 -176.363 255.691 9
-3 -10 0 42.1803 248.442 9
-10 3 0 -10.1468 175.347 1
10 3 0 134.338 209.81 3
-3 10 0 460.542 357.185 7
10 -3 0 337.177 409.56 3
3 10 1 3665.56 715.981 7
10 -3 1 4082.58 701.877 3
-10 3 -1 4211.57 608.995 1
3 -10 -1 5014.33 818.196 3
3 10 -1 3205.02 672.4 7
10 -3 1 3513.2 711.97 2
10 3 1 4419.43 801.221 2
-10 -3 -1 3455.5 648.744 9
-10 -3 1 4364.98 743.092 1
3 -10 1 3315.57 592.472 9
-3 -10 -1 3807.61 719.191 9
-3 -10 1 3662.13 690.683 9
-10 -3 1 3553.37 727.905 9
3 10 1 3525.18 725.655 8
10 3 -1 3343.62 607.72 3
-10 3 1 4183.67 684.348 1
-3 10 -1 3549.22 713.211 7
10 -3 -1 4664.64 781.478 3
-3 10 1 3722.27 718.773 7
3 -10 -2 811.598 317.185 3
-10 -3 2 649.981 332.365 1
-10 -3 -2 431.263 303.715 9
10 -3 2 1187.57 363.639 2
10 3 2 513.785 397.434 2
10 -3 2 817.497 346.104 3
3 10 2 897.064 435.245 7
3 -10 2 841.715 317.276 9
-3 -10 -2 110.21 284.7 9
-3 -10 2 421.175 211.136 9
3 10 2 1470.74 420.966 8
-10 -3 2 887.224 390.961 9
-3 10 2 845.041 443.483 8
10 3 -2 1068.34 406.216 3
-10 3 2 890.438 370.96 7
-10 3 2 1122.61 438.975 1
10 -3 -2 988.951 478.406 3
-3 10 -2 993.542 414.317 7
-3 10 2 871.392 326.526 7
3 10 -2 749.755 397.353 7
3 10 3 5418.86 869.909 7
10 3 -3 7759.83 1015.67 3
10 -3 3 6704.06 959.508 2
10 3 3 7477.08 993.475 2
-3 10 3 6262.09 811.804 1
10 -3 -3 7299.59 1044.63 3
-3 -10 -3 7605.67 1005.73 9
-3 -10 3 6250.68 812.439 9
-10 -3 -3 7068.48 922.823 9
-10 -3 3 6757.48 993.822 9
3 -10 -3 7064.64 933.008 3
10 -3 3 5828.93 815.695 3
-3 10 3 7093.97 1008.94 8
-3 -10 3 5671.7 723.398 1
3 10 3 6630.23 983.897 8
-10 -3 3 7558 1025.39 1
-3 10 -3 6988.92 1017.88 7
3 10 -3 5314.71 868.66 7
-3 10 3 6652.23 867.166 7
-10 3 3 7669.09 989.166 1
10 3 -4 12650.1 1371.96 3
10 -3 4 12216.1 1326.72 2
10 3 4 12629.5 1403.13 2
-3 10 4 11298.2 1177.88 1
-10 -3 -4 10561.9 1169.51 9
10 -3 -4 12948.4 1403.66 3
-3 -10 -4 13444.9 1380.24 9
3 -10 -4 12371.9 1260.47 3
-3 10 4 11789 1379.11 8
3 10 4 11844.6 1362.8 8
-10 -3 4 12885.3 1373.9 1
-3 10 -4 12351.6 1404.35 7
3 10 -4 11108.9 1261.14 7
-10 3 4 12789.4 1342.72 1
10 3 -5 6048.58 999.291 3
3 10 5 5094.24 941.286 8
-3 10 5 5259.6 1031.64 8
-10 3 5 5888.73 990.3 1
-10 -3 -5 3877.46 700.419 9
10 3 5 5662.72 978.879 2
-3 10 5 4814.63 821.957 1
-3 10 -5 5620.12 988.82 7
-3 -10 -5 5426.41 932.834 9
10 -3 5 6273.28 990.366 2
3 -10 -5 6494.7 965.202 3
-10 -3 5 5616.74 969.674 1
10 -3 -5 5101.48 946.339 3
3 10 -5 5299.24 892.01 7
3 -10 -6 402.404 444.816 3
10 3 6 308.763 290.171 5
-3 -10 -6 258.314 270.77 9
-3 10 6 -119.268 289.939 1
-10 3 6 429.073 334.451 1
10 -3 6 402.558 317.752 5
10 3 -6 478.99 310.845 3
-3 10 6 30.0924 335.617 8
3 10 6 -32.2437 376.522 8
3 -10 6 526.909 275.829 5
10 -3 -6 523.079 326.753 3
-3 -10 6 1.42107 251.727 4
-10 -3 6 316.494 387.398 1
-3 10 -6 128.696 375.582 7
3 10 -6 -103.381 328.542 7
-10 -3 7 -1270.49 625.294 1
-10 3 7 -312.957 408.295 1
-10 3 7 -108.414 200.603 4
-3 10 7 141.839 356.604 1
3 -10 -7 -39.5726 207.946 6
3 -10 -7 -176.861 291.009 9
10 -3 7 -18.8351 299.203 5
-3 -10 -7 155.045 299.322 9
10 3 7 93.4117 227.527 5
3 10 7 309.367 428.756 8
3 -10 7 258.804 276.135 5
10 -3 -7 299.947 444.086 3
-10 3 -7 -150.529 573.277 7
-3 -10 7 -167.18 202.953 4
-3 10 -7 83.8819 398.74 7
-3 10 7 -628.39 506.452 8
3 10 -7 -527.312 465.231 7
-3 10 8 141.498 306.234 1
-10 -3 8 8.51659 194.979 4
10 -3 8 35.0466 240.56 5
-10 -3 8 411.83 472.485 1
-10 3 8 151.734 235.827 4
3 -10 -8 41.1474 423.052 9
-3 -10 -8 -394.434 511.984 9
-3 10 8 316.968 276.968 4
-10 3 8 598.08 349.728 1
10 3 8 282.411 273.968 5
3 -10 8 -301.516 241.478 5
10 3 -8 -358.688 501.412 3
3 10 8 42.1091 449.487 8
-3 10 8 392.677 491.946 8
-3 -10 8 -276.943 326.681 5
10 -3 -8 649.18 375.039 3
-10 3 -8 -89.8228 378.624 7
-3 -10 8 138.462 246.893 4
-3 10 -8 983.389 612.244 7
-10 -3 9 55.1843 190.206 4
-10 3 9 -755.41 339.378 4
-3 10 9 116.403 228.199 4
10 3 9 -163.958 324.134 5
10 -3 9 175.87 226.403 5
3 -10 -9 -171.364 337.014 9
3 -10 9 -667.805 446.956 5
-3 -10 9 -385.532 315.81 5
-3 -10 9 -172.64 235.133 4
-10 -3 10 -142.225 234.885 4
10 3 10 66.9454 262.726 5
-3 -10 10 112.416 286.631 5
-10 3 10 61.0319 238.949 4
-3 10 10 224.455 243.409 4
10 -3 10 -115.068 274.912 5
3 -10 10 85.8886 313.6 5
-3 -10 10 583.046 321.442 4
-3 -10 11 1467.34 425.973 4
-10 3 11 1761.21 467.713 4
-3 10 11 1879.5 476.782 4
-3 -10 11 1988.84 556.283 5
10 3 11 1443.16 482.024 5
10 -3 11 2627.8 590.974 5
3 -10 11 2481.92 603.918 5
-10 -3 11 1689.54 417.291 4
-10 3 12 97.6209 193.834 4
-10 -3 12 1104.23 393.262 4
-3 10 12 856.022 333.389 4
10 -3 12 813.1 387.024 5
3 -10 12 956.009 410.622 5
-3 -10 12 514.342 324.483 5
-10 -3 13 -267.307 251.785 4
3 -10 13 201.221 240.096 5
-10 3 13 -386.016 287.083 4
-3 10 13 -143.571 211.411 4
-3 -10 13 71.6876 185.942 5
10 -3 13 60.9445 205.139 5
-10 3 14 -218.976 190.035 4
-3 10 14 -191.144 193.183 4
10 -3 14 161.243 219.376 5
-3 -10 14 190.969 182.199 5
3 -10 14 91.6562 209.549 5
-10 -3 14 -87.7208 164.002 4
-10 -4 0 19902.7 1534.9 9
10 4 0 20486.2 1603.07 2
10 -4 0 21928.5 1691.38 2
10 4 0 18369.9 1275.46 3
-4 -10 0 19354 1483.77 9
10 -4 0 18759.5 1516.59 3
-10 4 0 19791.5 1596.25 7
-4 10 0 19389.3 1538.82 7
-10 4 0 18907.5 1338.32 1
4 10 0 18218.6 1490.42 7
10 -4 1 21420.8 1673.13 2
10 4 1 21519.8 1646.21 2
10 -4 -1 21829.5 1679.75 3
10 -4 1 21660 1618.89 3
4 -10 1 22015.9 1483.92 9
-4 -10 -1 23284.5 1654.56 9
-4 -10 1 20800.8 1557.24 9
-10 -4 -1 22126.4 1644.23 9
-10 -4 1 21673.1 1599.59 9
4 -10 -1 23148 1714.57 3
-4 10 1 22916.8 1718.67 8
-4 10 1 20396.4 1544.85 7
10 4 -1 19721.8 1403.88 3
-10 4 1 21254.9 1509.47 7
4 10 1 19106.8 1640.1 8
-4 10 -1 21508.1 1680.24 7
4 10 -1 20275.9 1586.65 7
4 10 1 19580.2 1616.86 7
-10 4 1 20388.7 1483.64 1
4 10 -2 2894.73 666.507 7
4 10 2 2952.91 672.531 7
-10 4 2 3260.07 645.386 1
-10 -4 2 2815.58 668.8 1
10 -4 2 2236.51 553.488 3
4 -10 -2 3128.28 665.541 3
-10 -4 -2 2979.82 641.148 9
-4 10 2 2682.08 649.535 8
10 -4 2 2690.68 622.826 2
10 4 2 3129.53 694.73 2
-4 -10 -2 3174.58 668.286 9
10 4 -2 3150.33 602.382 3
4 -10 2 2849.97 542.922 9
-4 -10 2 4008.9 720.664 9
-10 -4 2 3877.84 719.351 9
4 10 2 2728.54 689.232 8
-4 10 2 2689.06 539.625 1
-4 10 -2 2374.19 620.991 7
10 -4 -2 2410.13 598.377 3
-4 10 2 3395.12 667.045 7
4 10 -3 -308.241 252.606 7
4 -10 -3 -199.167 266.402 3
-10 4 3 655.814 338.34 1
10 -4 3 -96.3663 270.707 3
-4 10 3 -204.117 271.08 1
-4 -10 3 -87.4086 292.044 9
-4 -10 3 1.64295 232.261 1
10 -4 3 196.838 366.579 2
10 4 3 -308.904 297.193 2
-10 -4 3 381.743 317.682 1
4 10 3 -513.198 505.191 8
-10 -4 -3 159.742 343.147 9
-4 -10 -3 160.649 267.37 9
-10 -4 3 586.966 362.345 9
-4 10 3 225.702 294.397 8
10 4 -3 213.923 250.178 3
10 -4 -3 29.4543 268.096 3
-4 10 -3 155.1 330.539 7
-4 10 3 172.228 249.977 7
4 -10 -4 1356.53 425.727 3
10 -4 4 1196.04 532.547 2
-10 4 4 645.767 429.073 1
-10 -4 -4 1058.84 371.763 9
-4 -10 -4 1041.33 434.758 9
10 4 4 1083.72 400.702 2
-4 10 4 748.147 438.375 8
10 4 -4 923.945 468.699 3
-10 -4 4 1169.63 443.246 1
4 10 4 684.102 392.807 8
-4 10 4 781.959 343.535 1
10 -4 -4 1156.1 532.316 3
-4 10 -4 833.466 386.52 7
4 10 -4 867.961 408.904 7
4 -10 -5 700.376 447.088 3
10 -4 5 383.344 383.68 2
10 4 -5 1113.24 459.935 3
-10 4 5 357.22 437.661 1
4 10 -5 737.886 421.629 7
-4 -10 -5 320.324 337.161 9
10 4 5 358.204 482.61 2
-10 -4 -5 307.265 271.987 9
-4 10 5 986.229 458.512 1
4 10 5 52.399 355.842 8
-10 -4 5 793.16 504.187 1
-10 4 -5 234.389 445.471 7
10 -4 -5 461.904 431.114 3
-4 10 -5 485.11 278.893 7
-4 10 5 256.806 306.398 8
4 -10 -6 664.098 352.541 3
-4 -10 -6 -44.8294 278.359 9
4 10 -6 1260.92 493.838 7
10 4 6 630.486 318.204 5
10 -4 -6 776.069 520.892 3
10 -4 -6 371.289 242.504 6
-10 4 6 401.381 264.382 4
-10 4 6 68.3218 460.558 1
10 -4 6 726.165 300.217 5
10 4 -6 837.515 493.25 3
-4 10 6 -273.935 311.165 8
4 10 6 919.856 533.618 8
-4 10 6 757.349 417.941 1
-10 4 -6 -394.241 550.905 7
-10 -4 6 371.37 393.654 1
-4 -10 6 439.647 213.784 4
4 -10 6 652.341 296.928 5
-4 10 -6 1236.33 570.802 7
-4 10 7 2673.94 805.252 8
10 -4 7 2069.41 492.892 5
10 -4 -7 1158.42 367.859 6
-10 4 7 1421.98 415.835 4
10 4 7 2302.43 572.427 5
4 -10 -7 1598.11 393.96 6
-10 4 7 1683.71 581.229 1
-4 -10 -7 2384.65 659.196 9
4 -10 7 2474.57 568.911 5
10 4 -7 2108.53 709.515 3
4 10 7 1006.14 630.433 8
-10 4 -7 2592.35 873.695 7
10 -4 -7 1159.89 570.914 3
-4 -10 7 1622.31 438.169 4
-4 10 7 2123.68 731.551 1
-4 10 -7 1207.38 573.965 7
-10 -4 7 1707.93 771.545 1
10 -4 -8 1256.16 670.51 3
-10 4 8 1115.07 579.852 1
-10 -4 8 2465.09 819.156 1
-4 10 -8 1235.67 504.743 7
-4 10 8 535.378 381.342 1
-10 4 8 1716.19 448.919 4
10 4 8 1770.47 538.775 5
-4 10 8 1484.52 418.294 4
4 -10 8 1399.62 466.189 5
4 -10 -8 840.751 486.138 9
-4 -10 -8 412.904 472.735 9
10 4 -8 545.695 482.725 3
4 10 8 1237.31 535.304 8
-4 10 8 1123.97 499.099 8
-4 -10 8 1012.4 353.363 5
10 -4 8 1423.83 450.557 5
-10 4 -8 956.605 640.794 7
-4 -10 8 1395.12 414.758 4
-4 -10 9 19.9856 224.985 4
-10 -4 9 -444.781 348.859 4
10 4 9 223.556 311.913 5
-10 4 9 268.982 266.002 4
-4 10 9 -466.641 338.198 4
10 -4 9 -57.882 245.772 5
4 -10 9 -10.4672 264.718 5
-4 -10 9 -68.4907 291.818 5
-10 -4 10 -46.3477 244.723 4
10 4 10 -266.946 278.35 5
-10 4 10 -157.35 317.173 4
-4 10 10 404.023 285.486 4
10 -4 10 -260.379 320.571 5
4 -10 10 213.309 325.362 5
-4 -10 10 -386.646 321.034 5
-4 -10 10 -254.232 369.837 4
4 -10 11 -144.187 275.972 5
-10 4 11 -289.886 318.786 4
-10 -4 11 -323.222 276.631 4
-4 10 11 -203.012 272.46 4
-4 -10 11 8.85888 257.5 5
10 -4 11 -379.884 306.291 5
-4 -10 11 -104.45 292.52 4
-10 -4 12 -237.58 176.58 4
-10 4 12 -330.265 251.647 4
-4 10 12 -275.629 249.366 4
10 -4 12 149.315 246.029 5
4 -10 12 254.967 248.195 5
-4 -10 12 408.334 295.814 5
-10 4 13 -74.7676 207.807 4
10 -4 13 -63.1828 219.982 5
-4 10 13 119.926 166.008 4
-4 -10 13 -168.362 181.461 5
4 -10 13 87.9331 253.279 5
-10 -4 13 -27.0229 169.784 4
-10 4 14 264.062 157.245 4
-4 10 14 -402.227 215.84 4
10 -4 14 -96.7165 194.836 5
4 -10 14 -96.8503 210.712 5
-10 -4 14 -274.931 209.469 4
5 10 0 -141.682 278.043 7
10 -5 0 62.047 268.674 3
5 -10 0 205.853 292.465 3
10 5 0 385.845 346.338 2
10 -5 0 -371.369 262.887 2
-10 -5 0 26.8368 249.949 9
-10 5 0 -294.143 371.879 7
-5 -10 0 508.215 310.297 9
-5 10 0 -407.309 405.583 7
10 -5 -1 289.379 418.485 3
5 10 1 11.7719 249.393 7
10 -5 1 310.93 315.345 3
-10 5 1 450.764 284.581 1
5 -10 -1 544.985 394.861 3
-5 10 1 181.003 291.427 8
-5 -10 1 367.114 314.835 9
-10 -5 -1 -264.876 300.413 9
-5 -10 -1 86.2707 250.274 9
-10 -5 1 -231.362 281.862 9
10 -5 1 254.413 264.79 2
10 5 1 151.232 276.757 2
5 10 -1 -86.99 244.989 7
5 10 1 62.9224 257.905 8
10 5 -1 -262.988 341.901 3
-10 5 -1 89.4188 316.367 7
-10 5 1 327.643 283.305 7
-5 10 -1 91.3365 252.538 7
-5 10 1 272.534 270.174 7
5 10 -2 2754.87 652.042 7
5 -10 -2 3271.76 728.542 3
10 -5 2 3622.16 718.941 3
-10 5 2 4038.26 733.062 1
10 5 2 3547.95 685.907 2
-10 -5 2 3841.63 732.591 1
10 -5 2 3272.48 726.329 2
-10 -5 -2 4485.8 792.936 9
-5 -10 -2 2752.14 606.297 9
-5 -10 2 3171.71 679.046 9
-10 -5 2 3185.81 671.409 9
-5 10 2 2777.73 653.568 8
5 10 2 3315.87 687.242 8
10 5 -2 2668.66 582.462 3
-10 5 -2 3534.45 785.67 7
-5 10 -2 3991.37 789.101 7
-5 10 2 3133.92 626.817 7
10 -5 -2 2965.64 656.642 3
-10 5 3 19489.3 1572.93 1
10 5 -3 18258.4 1569.09 3
-10 -5 -3 18829.9 1586.15 9
-10 -5 3 19707.3 1678.46 1
10 -5 3 19602.1 1633.46 2
10 5 3 19198.6 1627.61 2
-5 10 3 20135.4 1511.02 1
-5 -10 -3 19879.5 1664.73 9
-5 -10 3 17214.8 1464.3 9
10 -5 -3 19680.4 1725.57 3
-10 -5 3 17840.3 1621.82 9
5 -10 -3 19419.3 1652.9 3
-5 -10 3 16305.2 1366.11 1
-5 10 3 16868.6 1606.23 8
5 10 3 17406.2 1610.6 8
-10 5 -3 21201.6 1960.95 7
-5 10 -3 19972.3 1781.61 7
5 10 -3 17586.2 1600.25 7
-10 5 4 15839.9 1504.55 1
-5 10 4 17593.6 1540.85 1
10 -5 4 15602.1 1559.7 2
10 5 4 15234.1 1525.04 2
5 10 4 14406.3 1562.35 8
10 5 -4 16326.8 1611.56 3
-5 -10 -4 16360.7 1592.21 9
10 -5 -4 14737.3 1623.97 3
-10 -5 -4 15032.5 1482.38 9
-5 -10 4 13833.9 1302.45 9
-10 -5 4 15423.6 1566.06 9
5 -10 -4 15797.7 1565.5 3
-5 10 4 13677.7 1522.68 8
-5 -10 4 14282.6 1336.88 1
-10 -5 4 16468.6 1607.85 1
-10 5 -4 18071.2 1869.66 7
-5 10 -4 16145.9 1670.89 7
5 10 -4 14212.5 1465.36 7
5 -10 -5 6133.33 757.846 6
-5 10 5 6742.06 1035.44 1
10 -5 5 6743.04 1070.1 2
10 5 -5 7558.11 1204.05 3
-5 -10 -5 6972.4 1087.91 9
10 -5 -5 7271.5 1162.3 3
-10 5 5 6625.17 1033.76 1
-10 -5 -5 6778.12 1026.68 9
5 -10 -5 6385.59 1051.89 3
-5 10 5 6374.52 1179.22 8
10 5 5 6852.32 1032.67 2
5 10 5 6251.02 1089.73 8
-10 5 -5 7568.54 1322.67 7
-10 -5 5 7264.61 1122.59 1
5 10 -5 6057.14 977.574 7
-5 10 -5 7141.06 1182.63 7
5 10 -6 1228.44 475.275 7
5 10 6 1201.23 621.135 8
5 -10 -6 1190.55 505.632 3
-5 10 6 589.61 360.715 1
10 -5 6 1512.89 463.228 5
-10 -5 -6 607.493 327.954 9
10 -5 -6 1239.12 371.855 6
-10 5 6 1440.27 406.53 4
5 -10 -6 1231.39 359.149 6
-5 10 -6 2084.77 767.825 7
-10 5 6 50.6615 441.325 1
5 -10 6 1546.76 449.502 5
-5 -10 -6 1444.81 541.433 9
-5 10 6 1330.53 594.778 8
-10 -5 6 1042.9 573.824 1
-10 5 -6 1462.35 586.737 7
-5 -10 6 844.606 298.172 4
10 -5 -6 1663.38 535.683 3
10 5 -6 1702.67 621.68 3
-10 -5 7 -23.7695 303.329 1
5 -10 7 -74.3322 280.776 5
-5 -10 -7 -113.928 343.327 9
10 -5 -7 477.305 264.063 6
-10 5 7 0.79511 231.104 4
5 -10 -7 61.9282 180.661 6
-5 10 7 -606.063 501.732 1
10 -5 7 -108.758 286.042 5
-10 5 7 128.339 354.183 1
-5 10 7 295.408 448.928 8
5 10 7 -235.242 467.342 8
10 5 -7 -715.355 645.664 3
-10 5 -7 138.129 422.045 7
-5 -10 7 -251.956 258.654 4
10 -5 -7 -669.471 568.293 3
-5 10 -7 -181.069 507.355 7
10 -5 -8 69.7148 375.087 3
-10 -5 8 -652.694 539.172 1
-10 5 8 464.854 245.706 4
-5 10 8 0.8664 238.594 4
10 -5 8 449.724 281.127 5
-5 -10 -8 174.282 296.121 9
-5 10 8 -398.618 406.894 1
5 -10 8 304.677 241.933 5
10 5 -8 -653.589 447.448 3
5 10 8 253.481 433.434 8
-5 10 8 -701.769 547.103 8
-5 -10 8 -101.868 237.157 5
-10 5 8 -669.765 495.129 1
-10 5 -8 -1983.34 752.756 7
-5 -10 8 -120.814 336.677 4
-5 10 -8 -287.738 306.169 7
-10 -5 9 -6.05497 244.682 4
-10 5 9 -156.342 322.236 4
-5 10 9 173.021 256.731 4
10 -5 9 641.384 378.753 5
5 -10 9 193.32 278.143 5
-5 -10 9 593.951 394.3 5
-5 -10 9 -257.343 304.472 4
5 -10 10 977.51 427.803 5
-10 -5 10 1018.22 338.151 4
-10 5 10 1102.05 402.165 4
-5 10 10 277.694 259.51 4
10 -5 10 704.304 337.793 5
-5 -10 10 807.902 385.175 5
-5 -10 10 740.197 390.927 4
-10 -5 11 1260.7 388.314 4
5 -10 11 884.56 442.015 5
-10 5 11 751.123 326.559 4
-5 10 11 850.026 359.009 4
10 -5 11 956.48 433.549 5
-5 -10 11 1705.73 494.131 5
-5 -10 11 1017.6 401.634 4
-10 5 12 297.707 260.031 4
-5 10 12 457.643 287.204 4
10 -5 12 305.014 272.53 5
5 -10 12 293.123 231.252 5
-5 -10 12 814.123 346.922 5
-10 -5 12 294.053 178.481 4
-10 5 13 74.0616 168.087 4
-5 10 13 -455.237 258.574 4
-5 -10 13 -97.9126 171.571 5
10 -5 13 -114.631 212.161 5
5 -10 13 -298.074 275.21 5
-10 -5 13 -38.4307 186.438 4
-5 10 14 -37.6666 131.948 4
-10 5 14 208.693 177.009 4
5 -10 14 9.96179 162.269 5
10 -5 14 131.117 197.04 5
-10 -5 14 -161.985 159.05 4
6 10 0 2537.67 654.113 7
6 -10 0 402.441 296.057 3
10 6 0 1591.81 462.563 2
10 -6 0 1388.85 438.718 2
-6 -10 0 2385.82 599.168 9
10 -6 0 1421.47 537.47 3
-10 -6 0 2221.17 551.526 9
-10 6 0 1118.83 489.626 7
-6 10 0 1311.61 494.711 7
6 10 -1 1397.74 502.655 7
10 -6 -1 -831.664 474.312 3
-10 6 1 -435.676 259.86 7
10 -6 1 328.778 345.508 3
6 -10 -1 24.2206 283.04 3
-6 -10 -1 1311.33 414.641 9
-6 -10 1 1487.16 493.76 9
-10 -6 1 1396.74 448.84 9
10 -6 1 344.771 290.4 2
10 6 1 1039.86 485.353 2
-10 -6 -1 1753.15 569.705 9
-6 10 1 187.599 332.798 8
6 10 1 1308.95 490.722 8
10 6 -1 481.68 249.898 3
-10 6 -1 -411.513 347.419 7
-6 10 -1 140.896 379.18 7
-6 10 1 327.259 279.9 7
10 -6 -2 372.704 338.715 3
6 10 -2 -136.866 373.525 7
6 -10 -2 -53.2852 333.507 3
10 -6 2 -430.906 390.795 3
10 -6 2 204.633 369.767 2
-6 -10 -2 158.195 301.387 9
-10 6 2 -424.292 358.271 1
-10 -6 2 -341.746 413.382 1
10 6 2 -139.156 286.773 2
-6 -10 2 285.532 297.44 9
-10 -6 -2 179.791 326.436 9
-10 -6 2 197.953 355.895 9
10 6 -2 303.295 304.973 3
-6 10 2 109.659 278.487 8
6 10 2 336.75 314.837 8
-10 6 -2 15.909 419.491 7
-6 10 -2 238.524 302.227 7
-6 10 2 176.057 322.263 7
6 -10 -3 865.968 433.897 3
-6 -10 3 1556.58 538.845 9
6 10 3 1476.32 541.363 8
-10 -6 -3 1853.95 574.135 9
10 6 -3 2164.67 559.356 3
-6 -10 -3 1164.52 495.659 9
-10 6 3 1583.34 582.785 1
-6 -10 3 1746.7 594.586 1
-10 -6 3 1308.39 475.972 9
-10 -6 3 1503.87 534.778 1
10 -6 3 916.801 460.838 2
10 6 3 1197.76 538.734 2
-6 10 3 1353.93 540.829 8
6 10 -3 1514.56 570.247 7
-10 6 -3 1832.19 697.158 7
-6 10 -3 1519.9 602.948 7
10 -6 -3 1391.42 561.819 3
6 10 -4 933.269 469.111 7
6 -10 -4 629.329 450.08 3
-6 -10 4 1349.34 544.542 9
10 -6 4 306.625 303.317 2
-6 -10 -4 982.968 575.553 9
-10 -6 4 1176.13 539.939 9
-6 10 4 590.873 367.715 1
10 6 4 816.752 429.508 2
-10 6 4 563.237 388.117 1
-6 -10 4 1419.96 475.615 1
-10 -6 4 1967.79 665.965 1
-10 -6 -4 1250.43 519.938 9
10 6 -4 1363.97 597.772 3
-6 10 4 856.96 492.524 8
6 10 4 618.683 418.472 8
-10 6 -4 459.352 441.19 7
-6 10 -4 -208.895 439.064 7
10 -6 -4 621.569 327.254 3
6 10 -5 40.6771 319.749 7
6 -10 -5 78.1175 281.527 3
-10 6 5 -83.5906 320.357 1
-6 10 5 -285.698 367.113 1
10 -6 -5 351.511 237.915 6
6 -10 -5 -61.3977 189.973 6
10 6 -5 459.392 326.808 3
-6 -10 -5 182.456 293.578 9
-10 -6 -5 144.925 387.707 9
-10 -6 5 -330.996 426.425 1
6 -10 5 298.817 269.878 5
-6 10 5 442.506 518.137 8
6 10 5 140.377 290.057 8
-10 6 -5 162.777 421.442 7
-6 10 -5 478.023 505.489 7
10 -6 -5 -301.383 338.765 3
-10 6 6 188.88 267.803 1
6 10 6 -142.116 313.17 8
-6 10 6 -158.054 328.676 1
6 -10 6 32.9454 266.381 5
10 6 -6 577.504 431.764 3
10 -6 -6 -36.7093 179.544 6
-10 -6 -6 -368.984 352.521 9
6 -10 -6 -2.23455 241.336 6
-10 6 6 -99.4349 238.636 4
10 -6 6 -1068.01 365.72 5
-6 -10 -6 846.721 568.528 9
-6 10 6 -355.609 547.183 8
-10 -6 6 866.427 511.509 1
-10 6 -6 283.183 531.174 7
-6 10 -6 -225.113 414.617 7
6 -10 -6 7.39512 330.026 3
10 -6 -6 494.13 399.465 3
-10 -6 7 -77.9141 427.671 1
10 -6 -7 826.797 547.463 3
-6 -10 -7 441.341 352.19 9
10 -6 7 474.796 307.976 5
6 -10 -7 -56.9377 469.885 3
10 -6 -7 -114.131 196.595 6
-10 6 7 1121.3 518.224 4
-6 10 7 -78.8683 505.248 1
6 -10 -7 346.583 292.104 6
6 10 7 -602.335 451.544 8
6 -10 7 -53.7854 219.194 5
-6 10 7 378.081 405.592 8
-10 6 7 -30.9125 404.19 1
-6 -10 7 -74.5793 208.674 4
-10 6 -7 281.758 459.76 7
-6 10 -7 -1049.39 680.517 7
-10 6 8 -97.6977 467.113 1
-10 -6 8 56.1902 332.365 1
-6 -10 -8 604.143 435.586 9
-10 6 8 548.211 316.58 4
-6 10 8 1026.36 442.333 1
-6 10 8 714.928 317.412 4
10 -6 8 797.48 373.192 5
6 -10 8 -133.344 344.176 5
10 6 -8 197.894 338.886 3
6 10 8 -190.859 550.4 8
-6 10 8 1035.4 618.813 8
-6 -10 8 449.566 279.119 5
-6 -10 8 139.824 198.992 4
-10 6 -8 188.278 485.297 7
-6 10 -8 -192.182 526.71 7
10 -6 -8 7.59055 385.252 3
-10 6 9 1178.1 422.207 4
10 -6 9 1286.33 412.704 5
-6 10 9 1817.9 498.836 4
6 -10 9 1123.44 436.27 5
-6 -10 9 807.459 403.262 5
-6 -10 9 1381.23 402.417 4
6 -10 10 865.332 392.962 5
-10 6 10 298.695 274.908 4
-6 10 10 493.025 323.614 4
10 -6 10 718.544 439.607 5
-6 -10 10 701.329 420.095 5
-6 -10 10 449.631 276.667 4
-10 -6 10 -100.713 217.966 4
-10 6 11 -83.7797 269.658 4
-6 10 11 -100.46 191.803 4
6 -10 11 -205.378 279.319 5
10 -6 11 20.2226 269.666 5
-6 -10 11 -455.303 297.187 5
-6 -10 11 259.09 269.176 4
-10 -6 11 -45.1347 207.32 4
-10 6 12 360.164 261.022 4
-6 10 12 -49.9139 207.032 4
10 -6 12 91.9635 218.412 5
6 -10 12 -270.404 325.355 5
-6 -10 12 189.875 268.595 5
-10 -6 12 191.394 179.456 4
-10 6 13 -243.537 202.604 4
-6 10 13 -109.067 182.574 4
6 -10 13 -44.6903 186.871 5
10 -6 13 -117.002 257.711 5
-10 -6 13 140.138 188.918 4
-10 6 14 -171.491 156.35 4
10 -6 14 82.5834 164.71 5
6 -10 14 -262.954 184.709 5
10 -7 0 -114.242 349.879 3
7 -10 0 183.539 429.794 3
-7 -10 0 -478.709 365.23 9
10 7 0 61.6638 240.709 2
10 -7 0 -320.088 243.452 2
-10 -7 0 71.8923 304.612 9
-7 10 0 487.669 414.708 8
7 10 0 376.187 320.179 8
-10 7 0 -20.0248 349.806 7
-7 10 0 -276.184 381.574 7
7 10 -1 532.008 362.32 7
10 -7 -1 532.629 306.135 3
7 -10 -1 687.312 399.961 3
10 -7 1 586.167 337.222 3
10 7 1 714.848 338.57 2
10 7 -1 429.011 286.634 2
10 -7 -1 571.245 265.094 2
-10 -7 1 317.255 408.761 9
10 -7 1 184.881 248.577 2
-10 -7 -1 819.944 465.907 9
-7 -10 -1 -76.0448 395.551 9
-7 -10 1 524.904 364.678 9
-7 10 1 530.008 408.224 8
7 10 1 -1029.84 431.188 8
-10 7 -1 667.793 345.839 7
-10 7 1 551.876 287.775 7
-7 10 -1 549.848 449.226 7
-7 10 1 421.916 278.529 7
7 -10 -2 4651.6 884.272 3
10 -7 2 4336.18 842.982 3
7 10 -2 3959.24 806.342 7
-10 -7 2 4015.39 795.143 9
-10 -7 2 3973.34 812.053 1
10 -7 2 3454.89 700.082 2
10 7 2 3791.17 752.441 2
-7 -10 -2 3899.21 802.459 9
-7 -10 2 3159.11 706.811 9
-10 -7 -2 3479.92 733.978 9
7 10 2 3084.67 681.081 8
10 7 -2 4062.56 760.479 3
-7 10 2 3152.47 676.717 8
10 -7 -2 3369.09 800.685 3
-10 7 -2 4893.93 970.193 7
-7 10 -2 4776.34 908.63 7
-7 10 2 3695.31 709.697 7
10 -7 -3 4155.21 930.932 3
7 10 -3 3485.96 780.661 7
-7 10 3 3714.15 752.735 8
7 -10 -3 3916.85 795.976 3
-7 -10 3 3110.42 700.706 9
7 10 3 2992.63 781.965 8
-7 -10 3 3943.02 803.832 1
-10 -7 3 4702.52 880.554 1
10 -7 3 3124.52 684.811 2
10 7 3 3431.02 716.073 2
-7 -10 -3 4042.91 843.777 9
-10 -7 -3 3481.07 790.639 9
-10 7 3 2704.64 598.408 1
-10 -7 3 2908.27 726.443 9
10 7 -3 3103.11 712.87 3
-10 7 -3 3943.83 883.796 7
-7 10 -3 3276.64 839.253 7
7 10 -4 5226.29 950.69 7
7 -10 -4 5380.43 725.543 6
7 -10 -4 6722.56 1105.36 3
10 7 -4 5292.75 713.67 6
-10 7 4 5786.79 930.238 1
-10 -7 4 4649.23 887.594 9
10 7 -4 6110.01 1064.23 3
-10 -7 -4 5909.74 985.51 9
-7 -10 -4 6691.67 1079.86 9
10 -7 -4 7284.2 1190.37 3
-7 -10 4 4887.76 859.716 1
-10 -7 4 5956.36 1081.84 1
10 -7 4 6065.56 982.967 2
10 7 4 4208.58 842.215 2
-7 -10 4 4537.15 893.221 9
-7 10 4 5406.41 968.062 8
7 10 4 5213.53 969.048 8
10 -7 -4 5524.24 716.371 6
-7 10 -4 7347.44 1293.1 7
-10 7 -4 5985.93 1153.85 7
7 10 -5 2472.16 714.787 7
7 -10 -5 2418.06 648.006 3
-10 -7 5 2697.32 717.062 1
10 7 -5 2133.16 461.511 6
7 10 5 1055.84 473.306 8
10 -7 -5 3079.12 543.069 6
7 -10 -5 2310.14 490.549 6
-7 10 5 2209.27 644.309 1
-7 -10 -5 2384.13 721.025 9
-10 -7 -5 2518.91 692.569 9
-7 -10 5 2474.45 590.622 1
7 -10 5 1914.37 466.203 5
10 7 -5 2717.76 739.947 3
-7 10 5 1942.01 590.114 8
-10 7 5 3685.12 831.969 1
-10 7 -5 3492.99 929.735 7
-7 10 -5 2190.61 683.727 7
10 -7 -5 4817.79 1035.56 3
10 -7 -6 6842.61 847.553 6
7 -10 -6 6490.06 1136.79 3
7 -10 -6 7395.75 849.433 6
-7 10 6 7271.04 1165.01 1
-7 -10 -6 7586.42 1230.31 9
10 7 -6 6991.6 1265.2 3
10 -7 6 6788.66 843.837 5
7 -10 6 6019.2 819.988 5
-10 -7 -6 5302.25 1020.38 9
10 -7 -6 8174.58 1367.6 3
-7 10 6 4737.65 1005.75 8
7 10 6 5463.83 1009.87 8
-10 7 -6 9165.35 1502.4 7
-10 -7 6 7416.33 1236.54 1
-7 10 -6 8682.29 1460.38 7
-10 7 6 6622.55 1118.81 1
7 -10 -7 66.2641 333.708 3
-10 7 7 2037.06 722.947 1
10 -7 7 1947.46 516.637 5
-7 10 7 2116.25 747.222 1
10 -7 -7 2354.62 518.58 6
7 -10 -7 2330.31 485.63 6
-10 7 7 2086.09 538.393 4
-7 -10 -7 1922.34 609.17 9
10 -7 -7 2302.87 838.354 3
7 -10 7 2344.18 529.787 5
10 7 -7 1281.32 450.674 3
7 10 7 2898.12 873.355 8
-7 10 7 798.18 503.505 8
-10 7 -7 1820.52 765.612 7
-7 10 -7 2087.32 821.276 7
-10 -7 7 2170.31 705.559 1
10 -7 -8 70.4216 181.591 6
-10 7 8 -384.229 320.66 4
7 -10 -8 121.975 203.297 6
7 -10 8 30.4539 225.908 5
-7 10 8 323.771 278.083 4
10 -7 8 392.529 306.482 5
-7 -10 8 121.82 320.55 5
-7 -10 8 -371.473 274.412 4
-10 7 9 3417.85 659.986 4
-7 10 9 2021.07 498.974 4
10 -7 9 2171.74 519.58 5
7 -10 9 1227.71 443.515 5
-7 -10 9 1814.9 566.146 5
-7 -10 9 2034.28 482.698 4
-10 7 10 2101.92 509.776 4
-7 10 10 2159.31 525.987 4
10 -7 10 1477.86 467.995 5
7 -10 10 1167 479.226 5
-7 -10 10 1933.98 527.856 5
-7 -10 10 1830.3 468.507 4
-7 -10 11 223.105 233.858 5
-10 7 11 427.865 288.012 4
-7 10 11 5.95715 215.009 4
10 -7 11 -10.163 225.792 5
-10 -7 11 59.2423 225.409 4
7 -10 11 404.085 320.733 5
-10 7 12 304.974 225.287 4
-7 10 12 161.371 230.88 4
10 -7 12 329.155 247.378 5
7 -10 12 -167.388 297.497 5
-7 -10 12 515.03 289.367 5
-10 -7 12 -281.086 163.397 4
-10 7 13 78.2204 185.791 4
-7 10 13 -210.942 193.745 4
10 -7 13 49.8306 193.659 5
7 -10 13 211.159 205.589 5
-10 7 14 222.478 169.609 4
-7 10 14 -106.568 156.392 4
10 -7 14 135.049 186.506 5
7 -10 14 55.7197 168.625 5
10 -8 0 7945.79 1010.53 2
10 8 0 12505.1 1256.27 2
-8 -10 0 14971.2 1517.73 9
-10 -8 0 12643.5 1403.94 9
10 -8 0 9747.62 1258.95 3
8 -10 0 9205.49 1202.49 3
-8 10 0 6897.53 982.765 8
-10 8 0 9563.53 1218.06 7
-8 10 0 8942.17 1194.74 7
10 8 -1 6826.26 944.224 2
10 -8 -1 7580.28 1001.94 2
10 -8 -1 8249.19 1191.25 3
10 -8 1 6553.95 920.902 2
10 8 1 7508.56 961.17 2
10 -8 1 8023.52 1176.58 3
-8 -10 -1 8300.9 1145.9 9
-8 -10 1 8388.44 1172.49 9
-10 -8 -1 9676.63 1219.42 9
-10 -8 1 8663.51 1177.81 9
8 -10 -1 8033.55 1180.8 3
8 -10 1 8011.76 1170.77 3
-8 10 1 5871.15 895.144 8
-10 8 -1 8560.84 1198.56 7
-8 10 -1 8621.23 1204.71 7
-8 10 1 7603.55 1048.53 7
10 -8 -2 5483.34 717.597 6
10 8 2 8192.71 907.371 6
10 8 -2 9737.87 972.537 6
10 -8 -2 6156.93 1067.7 3
8 -10 -2 6081.07 762.646 6
8 -10 -2 6939.16 1093.99 3
10 -8 2 5878.21 1004.02 3
10 8 -2 9330.4 1130.99 2
10 -8 -2 5489.35 906.868 2
8 10 2 8552.67 876.118 6
10 8 2 7548.18 1085.49 2
-8 10 2 4028.31 829.903 8
10 8 -2 9068.05 1091.3 3
10 -8 2 5688.13 849.45 2
-8 -10 -2 9080.38 1233.52 9
-10 -8 -2 7314.49 1101.46 9
-8 -10 2 9183.08 1232.36 9
-10 -8 2 8616.28 1203.71 9
-10 -8 2 10891.8 1363.65 1
-10 8 -2 7158.56 1176.34 7
-8 10 -2 7338.45 1174.96 7
10 8 3 4125.2 628.691 6
10 8 -3 4333.99 667.073 6
8 10 3 3584.49 608.901 6
8 -10 -3 3699.84 898.51 3
8 10 -3 3471.01 571.545 6
10 -8 -3 4238.3 954.09 3
10 -8 -3 3036.23 556.427 6
8 -10 -3 3837.45 622.582 6
-8 10 3 2995.35 745.018 8
-8 -10 3 4695.34 946.535 1
-10 -8 3 5543.57 1019.57 1
10 -8 3 3549.05 715.211 2
-8 -10 -3 3822.71 796.63 9
-10 -8 -3 4495.17 889.453 9
-8 -10 3 4410.11 886.285 9
-10 -8 3 3745.26 866.281 9
10 8 -3 4507.26 864.629 3
-10 8 -3 3702.25 968.618 7
-8 10 -3 3334.36 870.827 7
10 -8 -4 3627.86 915.987 3
8 10 4 3451.6 569.032 6
8 -10 -4 3597.03 862.239 3
8 10 -4 2365.98 485.414 6
10 8 4 3237.15 548.635 6
10 8 -4 2901.42 581.46 6
-8 -10 4 3468.71 831.434 9
10 -8 -4 2693.11 480.578 6
8 -10 -4 3345.85 575.812 6
-10 -8 -4 3068.8 776.768 9
-8 -10 4 2596.86 705.824 1
-8 -10 -4 3150.15 766.624 9
-10 -8 4 2716 718.879 9
-10 -8 4 3038.26 789.133 1
10 8 -4 3126.97 764.033 3
-10 8 4 3064.58 591.342 10
-10 8 -4 2617.95 837.539 7
-8 10 -4 4052.22 958.792 7
10 -8 -5 3966.15 963.314 3
8 -10 -5 3974.49 796.198 3
-10 8 5 3844.66 841.816 1
10 8 5 3040.24 537.424 6
10 8 -5 3293.99 595.056 6
10 -8 -5 3547.31 591.287 6
8 -10 -5 3765.86 629.474 6
-8 -10 -5 4298.26 923.187 9
-10 -8 -5 3703.92 854.233 9
-10 -8 5 4229.27 924.584 9
-8 -10 5 5035.39 960.898 1
10 8 -5 4609.85 991.562 3
-10 -8 5 3432.73 822.424 1
-10 8 -5 4586.1 1055.28 7
-8 10 -5 4519.22 1060.43 7
10 -8 -6 43.7524 428.652 3
-10 8 6 904.476 465.978 1
-8 -10 -6 -291.845 444.63 9
-10 -8 -6 907.323 451.977 9
10 -8 -6 304.462 303.394 6
8 -10 -6 136.807 212.707 6
8 -10 -6 60.0504 392.762 3
10 -8 6 -153.322 257.203 5
8 -10 6 432.55 278.84 5
10 8 -6 427.723 340.438 3
8 10 -6 699.854 558.415 3
-10 -8 6 417.502 443.084 1
-10 8 -6 662.286 487.92 7
-8 10 -6 -233.637 390.484 7
-8 10 6 453.039 492.334 1
10 -8 -7 -145.17 375.878 3
8 -10 -7 769.871 569.566 3
-8 10 7 262.728 400.253 1
10 -8 7 886.678 333.176 5
-10 8 7 805.847 303.686 1
10 -8 -7 341.726 264.692 6
8 -10 -7 793.776 301.932 6
-10 8 7 1228.33 423.195 4
-8 -10 -7 501.014 406.866 9
8 -10 7 821.402 347.052 5
8 10 -7 416.845 310.816 3
10 8 -7 897.153 387.95 3
-10 8 -7 1233.5 506.444 7
-8 10 -7 912.292 401.29 7
-10 -8 7 1256.26 591.997 1
10 -8 -8 968.909 388.437 6
8 -10 -8 156.26 246.995 6
-10 8 8 591.776 384.505 4
-8 10 8 910.941 413.23 4
10 -8 8 712.958 368.317 5
8 -10 8 513.44 347.609 5
-8 -10 8 1423.29 493.214 5
-10 8 9 603.442 311.367 4
-8 10 9 281.844 284.567 4
10 -8 9 183.469 268.808 5
8 -10 9 272.595 294.627 5
-8 -10 9 -242.949 369.424 5
-8 -10 9 380.514 222.245 4
8 -10 10 142.776 264.413 5
-10 8 10 379.317 325.078 4
-8 10 10 311.15 286.085 4
10 -8 10 454.165 298.417 5
-8 -10 10 675.514 305.488 5
-10 8 11 -286.993 304.591 4
8 -10 11 67.7761 231.021 5
-8 10 11 -137.574 212.543 4
10 -8 11 98.0605 292.12 5
-8 -10 11 150.88 231.747 5
8 -10 12 261.566 268.719 5
-10 8 12 -179.892 182.912 4
-8 10 12 -243.432 199.038 4
10 -8 12 102.478 252.561 5
-10 8 13 368.979 239.551 4
-8 10 13 -32.4197 149.986 4
10 -8 13 -271.124 249.269 5
8 -10 13 21.1284 180.535 5
-10 8 14 48.3067 128.733 4
8 -10 14 -204.872 184.146 5
9 10 0 438.704 297.38 6
10 9 0 195.546 275.4 6
10 -9 0 891.026 541.995 3
9 -10 0 189.659 293.726 3
10 -9 0 291.818 177.35 6
9 -10 0 8.78576 219.507 6
-9 -10 0 479.442 346.421 9
-10 -9 0 -49.844 291.851 9
-10 9 0 -41.2671 263.037 7
-9 10 0 120.118 394.673 7
9 10 1 5236.82 705.997 6
9 10 -1 4729.59 664.631 6
10 9 1 5379.43 765.755 6
10 9 -1 4950.6 719.001 6
10 -9 1 4612.04 629.296 6
10 -9 -1 4826.9 694.794 6
9 -10 -1 4963.03 697.463 6
10 -9 -1 5045.68 979.499 3
9 -10 -1 4395.8 934.528 3
10 -9 1 6294.58 1105.08 3
-10 -9 1 5836.47 1024.74 9
9 -10 1 4116.89 596.793 6
-9 -10 -1 4507.98 885.234 9
-10 -9 -1 5293.01 953.483 9
-9 -10 1 4551.53 899.242 9
9 -10 1 6545.2 1117.4 3
-10 9 -1 4423.14 917.971 7
-9 10 -1 4630.26 938.899 7
9 10 2 13976.5 1131.38 6
9 10 -2 11023.2 1041.83 6
10 9 -2 12968.3 1137.25 6
10 -9 2 10208.8 943.96 6
10 -9 -2 12795.5 1095.64 6
9 -10 2 9502.96 904.919 6
9 -10 -2 12180.9 1083.34 6
-9 -10 -2 11279.8 1394.85 9
-10 -9 -2 10999.7 1385.58 9
-9 -10 2 10685.8 1389.6 9
-10 -9 2 10753.1 1360.74 9
10 -9 -2 14242.8 1633.37 3
9 -10 -2 13086.8 1580.61 3
-9 -10 2 12998.6 1575.01 1
-10 -9 2 11495 1463.71 1
-10 9 -2 11936.7 1538.16 7
-9 10 -2 12772.4 1604.1 7
10 9 2 12686.4 1099.82 6
9 10 3 9159.9 926.015 6
10 9 3 9231.12 936.067 6
9 10 -3 8427.44 898.871 6
10 9 -3 9589.56 976.82 6
10 -9 -3 9979.42 984.82 6
9 -10 -3 8695.87 951.459 6
9 -10 -3 10512.2 1480.2 3
9 10 -3 8191.14 1194.92 3
10 9 -3 7770.39 1127.82 3
-9 -10 -3 9317.25 1297.9 9
-10 -9 -3 7404.18 1158.99 9
-9 -10 3 8960.22 1331.55 9
-10 -9 3 8423.17 1266.79 9
10 -9 -3 9194.23 1405.38 3
-9 -10 3 8496.2 1252.6 1
-10 -9 3 9717.65 1350.83 1
-10 9 -3 11023.2 1515.11 7
-9 10 -3 9624.55 1487.72 7
9 10 -4 3580.89 843.957 3
10 -9 -4 3217.88 885.933 3
9 -10 -4 4137.52 933.277 3
9 10 4 3177.23 572.5 6
10 9 4 3354.63 600.787 6
9 10 -4 2494.39 508.018 6
10 9 -4 2538.14 532.449 6
-10 -9 -4 2229.37 669.973 9
10 -9 -4 2760.7 562.276 6
9 -10 -4 3349.6 603.652 6
-10 -9 4 2282.89 646.884 9
-9 -10 4 2622.62 720.353 1
-10 -9 4 2325.02 690.056 1
-9 -10 -4 2681.08 739.416 9
10 9 -4 1854.87 661.46 3
-9 -10 4 2748.98 729.773 9
-10 9 -4 3774.27 1001.78 7
-9 10 -4 4275.55 1061.85 7
10 -9 -5 2029.47 726.57 3
9 -10 -5 1691.66 637.127 3
10 9 5 1759.36 434.774 6
9 10 -5 1644.04 421.675 6
10 9 -5 2180 464.488 6
10 -9 -5 2157.65 484.879 6
-10 -9 5 1732.3 601.149 9
9 -10 -5 2139.19 509.247 6
-9 -10 -5 2398.75 735.973 9
-10 -9 -5 1297.27 486.909 9
9 10 -5 2324.55 691.158 3
10 9 -5 2440.32 699.163 3
-9 -10 5 2714.35 670.319 1
-10 -9 5 1506.04 610.007 1
-10 9 -5 1846.97 794.512 7
-9 10 -5 2130.03 774.373 7
10 -9 -6 -28.2512 301.126 3
9 -10 -6 675.086 476.31 3
10 -9 -6 85.57 232.111 6
9 -10 -6 -11.4438 205.965 6
10 -9 6 374.61 231.998 5
-9 -10 -6 231.384 324.642 9
-10 -9 -6 -289.204 452.64 9
9 -10 6 266.107 262.119 5
9 10 -6 896.142 544.192 3
10 9 -6 -163.755 331.049 3
-10 -9 6 232.507 408.87 1
-10 9 -6 1024.74 577.243 7
-9 10 -6 660.808 344.275 7
9 -10 7 19.6985 257.199 5
10 -9 7 -610.187 376.264 5
10 -9 -7 132.993 228.261 6
9 -10 -7 -253.403 218.312 6
-10 9 7 -100.64 268.056 4
10 -9 -8 561.363 317.246 6
9 -10 -8 488.64 252.436 6
-10 9 8 280.541 211.693 4
-9 10 8 880.728 411.229 4
10 -9 8 190.373 226.079 5
9 -10 8 749.916 330.568 5
-10 -9 8 229.995 259.947 5
-9 -10 8 1071.45 439.954 5
9 -10 9 -302.556 326.847 5
-10 9 9 508.862 326.725 4
-9 10 9 368.2 294.785 4
10 -9 9 266.59 301.872 5
-9 -10 9 148.998 249.786 5
9 -10 10 297.072 291.036 5
-10 9 10 236.842 272.587 4
-9 10 10 -346.779 296.879 4
10 -9 10 106.635 226.093 5
-9 -10 10 -125.6 219.587 5
-10 9 11 582.801 278.74 4
-9 10 11 518.514 272.285 4
9 -10 11 511.071 261.738 5
10 -9 11 82.4586 251.279 5
-10 9 12 1.72299 174.941 4
-9 10 12 219.504 207.456 4
10 -9 12 269.958 217.111 5
9 -10 12 189.862 202.469 5
-10 9 13 92.1925 166.607 4
-9 10 13 -179.012 163.709 4
10 -9 13 142.084 191.856 5
9 -10 13 206.309 178.966 5
10 10 0 11833.2 1076.93 6
10 -10 0 9189.19 933.272 6
-10 -10 0 11891.4 1444.77 9
10 -10 0 10588.5 1430.66 3
-10 10 0 9810.79 1339.54 7
10 10 1 13857.4 1163.05 6
10 10 -1 13899.9 1192.04 6
10 -10 1 11156.2 1451.52 3
10 -10 1 10040.3 961.715 6
10 -10 -1 10310.6 1014.41 6
-10 -10 -1 14284.4 1604.4 9
-10 -10 1 15248.9 1691.15 9
10 -10 -1 10765.2 1472.94 3
-10 10 -1 11595 1483.73 7
10 10 2 3040.95 571.012 6
10 -10 -2 2318.96 730.522 3
10 10 -2 3042.81 616.547 6
-10 -10 2 2253.8 693.587 9
10 -10 2 2313.93 482.917 6
10 -10 -2 2885.83 560.459 6
-10 -10 2 4083.11 954.696 1
-10 -10 -2 2902.04 875.265 9
-10 10 -2 3692.99 970.448 7
10 -10 -3 52.6371 321.296 3
10 10 3 969.818 391.611 6
10 10 -3 1104.73 403.953 6
-10 -10 3 1393.37 685.683 1
10 -10 -3 622.792 300.661 6
-10 -10 3 1763.45 658.533 9
-10 -10 -3 784.552 539.535 9
-10 10 -3 532.464 305.583 7
-10 -10 -4 -581.543 477.264 9
10 -10 -4 47.9323 296.636 3
10 10 -4 233.66 206.14 6
10 -10 -4 -85.1621 248.929 6
-10 -10 4 634.493 431.483 9
10 10 -4 -673.794 569.18 3
-10 -10 4 312.562 351.502 1
-10 10 -4 216.435 351.113 7
10 -10 -5 -765.919 495.861 3
10 10 -5 574.088 320.598 6
10 -10 -5 435.397 252.394 6
-10 -10 -5 118.211 372.296 9
10 10 -5 -497.311 344.445 3
-10 -10 5 129.878 380.461 1
-10 10 -5 -1598.6 717.682 7
10 -10 -6 210.057 247.393 6
10 -10 -7 662.806 314.548 6
-10 10 7 271.107 272.729 4
10 -10 7 585.345 297.059 5
10 -10 8 437.17 357 5
10 -10 -8 338.946 224.583 6
-10 10 8 357.09 293.524 4
-10 -10 8 714.78 389.389 5
-10 10 9 51.4135 250.011 4
10 -10 9 -424.11 309.896 5
-10 -10 9 -327.069 330.482 5
10 -10 10 132.146 231.787 5
-10 10 10 -453.947 305.702 4
-10 10 11 -102.794 220.277 4
10 -10 11 148.128 246.749 5
-10 10 12 -435.587 225.208 4
10 -10 12 -185.49 183.956 5
-10 10 13 303.275 187.39 4
10 -10 13 -53.1636 157.43 5
-11 0 0 213.535 299.687 1
11 0 0 -525.536 424.048 2
0 -11 0 -174.95 280.779 9
11 0 0 -237.292 269.767 3
0 11 0 -84.2776 258.159 7
0 -11 1 45270.7 2253.19 9
11 0 1 50941.9 2670.72 2
0 -11 -1 51085.2 2517.44 9
-11 0 1 45409.7 2284.13 1
11 0 -1 46252 2343.83 3
11 0 1 45799.8 2160.44 3
-11 0 -1 48439.5 2486.19 9
-11 0 -1 42864.7 2144.36 1
0 11 -1 44752.5 2444.04 7
0 11 1 46869 2452.89 7
11 0 2 41471.7 2447.98 2
11 0 -2 40941.8 2323.9 3
0 -11 -2 42111.4 2389.33 9
0 -11 2 39762.6 2037.81 9
0 11 2 37901.9 2320.37 8
-11 0 -2 42437.4 2287.78 9
-11 0 2 42807.8 2308.38 1
0 11 -2 39061.2 2310.24 7
0 11 2 39746.6 2333.71 7
11 0 -3 61403.4 2954.94 3
11 0 3 63069.2 2995.04 2
0 -11 -3 67650.1 3109.22 9
-11 0 -3 61499.9 2746.7 9
0 11 3 58368.7 2965.47 8
-11 0 3 63176.1 2927.57 1
0 11 -3 60936.6 2916.38 7
0 11 3 58603.9 2807.33 7
11 0 -4 16272.5 1650.79 3
11 0 4 16967 1628.93 2
0 -11 -4 17709.3 1710.05 9
-11 0 -4 16274.3 1406.61 9
0 11 4 13625.8 1502.2 8
0 11 -4 16371.7 1578.71 7
-11 0 4 16222.6 1612.97 1
0 11 4 15686.1 1479.74 7
11 0 -5 7469.7 1173.15 3
11 0 5 7667.4 1195.36 2
0 -11 -5 7210.49 1155.09 9
0 11 5 7426.98 1270.53 8
0 11 -5 6888.92 1139.7 7
-11 0 5 7835.32 1144.58 1
-11 0 6 2139.51 717.861 1
11 0 -6 1798.16 410.93 6
11 0 6 1604.77 421.386 5
0 -11 -6 2002.68 638.661 9
0 11 6 1358.77 732.817 8
11 0 -6 2812.9 843.348 3
0 -11 6 1855.06 502.091 5
0 11 -6 2157.75 679.087 7
-11 0 7 8004.59 1323.37 1
0 -11 -7 6618.06 1133.21 9
11 0 7 6483.28 877.922 5
0 -11 7 7956.31 1040.11 5
0 11 7 5975.21 1227.07 8
11 0 -7 5507.81 1163.58 3
0 11 -7 6105.22 1080.11 7
-11 0 8 3156.59 581.97 4
11 0 8 3656.26 686.921 5
-11 0 8 3862.59 942.034 1
0 11 8 3457.89 630.265 4
0 -11 -8 3107.73 844.505 9
0 11 8 1282.98 750.371 8
0 -11 8 3338.23 726.878 5
11 0 -8 3630.32 995.237 3
0 11 -8 2810.53 809.764 7
-11 0 9 2284.91 532.006 4
0 11 9 1948.55 455.033 4
11 0 9 1808.28 537.089 5
0 -11 9 2000.05 592.369 5
-11 0 10 2512.92 524.043 4
0 -11 10 1984.98 543.973 5
0 11 10 2720.56 538.429 4
11 0 10 2358.51 589.571 5
0 11 11 1187.43 352.706 4
11 0 11 1017.04 401.734 5
0 -11 11 298.35 289.239 5
-11 0 12 1063.45 337.639 4
11 0 12 303.304 262.315 5
0 -11 12 1084.37 426.435 5
-11 0 13 561.542 274.927 4
11 0 13 32.8547 221.497 5
0 -11 13 -120.206 260.575 5
-11 0 14 -34.6585 189.768 4
0 -11 14 564.98 267.8 5
1 -11 0 3167.29 644.588 9
11 1 0 2388.39 602.773 2
11 -1 0 2230.97 856.131 2
-11 -1 0 2540.87 566.14 1
-11 1 0 3361.61 630.894 1
-1 -11 0 2285.69 525.088 9
-11 -1 0 2268.55 574.697 9
11 1 0 1867.02 463.636 3
11 -1 0 2460.48 597.404 3
-1 11 0 3479.35 779.598 7
1 11 0 2411.34 611.351 7
1 11 1 600.587 522.647 7
11 -1 1 199.929 277.967 3
11 -1 1 -636.405 454.98 2
11 1 1 2335.14 731.317 2
-11 1 -1 121.408 242.624 1
1 -11 -1 81.7653 262.134 9
-11 -1 1 2131.95 561.17 1
1 -11 1 -104.443 269.218 9
-1 -11 -1 1478.25 597.349 9
-1 -11 1 733.345 505.453 9
-11 1 1 25.9761 278.908 1
-11 -1 -1 1567.73 673.086 9
-11 -1 1 2510.92 726.188 9
11 1 -1 232.325 320.167 3
11 -1 -1 -315.037 314.322 3
-1 11 -1 -287.508 338.871 7
11 1 1 106.921 292.845 3
1 11 -1 652.818 433.551 7
-1 11 1 -99.7217 266.039 7
-1 11 2 1098.8 434.217 7
1 11 2 944.73 442.602 7
-11 1 2 1422.61 544.045 1
-1 11 2 1791.02 668.147 8
-11 1 -2 1089.04 457.653 1
11 -1 2 784.866 570.157 2
11 1 2 1514.6 551.665 2
1 -11 -2 731.184 470.3 9
-1 -11 -2 1128.78 434.428 9
1 -11 2 922.527 357.469 9
-11 -1 2 860.285 310.153 1
-1 -11 2 196.887 273.511 9
11 -1 2 259.349 254.424 3
-11 -1 -2 806.428 394.303 9
1 11 2 377.133 308.65 8
11 1 -2 1279.81 520.343 3
11 -1 -2 1113.66 459.635 3
-1 11 -2 1378.04 480.307 7
1 11 -2 918.263 379.856 7
-1 11 3 2758.1 626.293 7
1 11 3 3064.27 747.644 7
-1 -11 -3 2462.93 657.324 9
-1 11 3 2940.5 726.602 8
11 1 3 2549.8 668.23 2
1 -11 -3 2706.4 641.379 9
11 -1 3 2993.49 753.826 2
-11 -1 -3 2689.26 610.376 9
-11 -1 3 3028.16 688.765 1
1 11 3 2886.27 746.37 8
-11 1 3 3527.11 726.539 1
11 1 -3 3563.72 767.099 3
11 -1 -3 3535.38 778.393 3
-1 11 -3 2623.98 697.153 7
1 11 -3 2456.66 684.671 7
-1 11 4 263.012 332.73 7
1 11 -4 1370.13 512.396 7
-1 -11 -4 1315.91 498.864 9
11 -1 4 1153.46 534.296 2
11 1 4 947.183 506.452 2
1 -11 -4 1297.94 554.62 9
-11 -1 -4 1629.25 508.923 9
-1 11 4 1215.34 512.612 8
1 11 4 1317.25 542.511 8
-11 -1 4 1794.14 592.985 1
11 1 -4 1409.39 687.033 3
11 -1 -4 682.75 399.688 3
-11 1 4 663.038 442.913 1
-1 11 -4 1003.41 494.288 7
-11 1 5 2149.97 744.949 1
11 -1 5 501.48 395.861 2
1 11 5 517.873 462.849 8
1 -11 -5 2105.05 678.984 9
-1 -11 -5 28.341 305.863 9
11 1 5 1438.11 648.472 2
-1 11 5 1596.69 595.488 8
11 1 -5 120.766 437.961 3
11 -1 -5 912.672 610.688 3
-11 -1 5 739.47 491.459 1
-1 11 -5 1007.03 553.696 7
1 11 -5 925.649 467.038 7
-11 -1 6 1239.28 561.53 1
11 1 6 70.7798 217.202 5
-11 1 6 252.064 354.142 1
11 1 -6 337.838 198.246 6
-1 11 6 427.215 552.029 8
11 -1 -6 -8.98382 194.253 6
11 -1 6 369.245 225.625 5
1 -11 -6 7.36618 448.455 9
-1 -11 -6 878.6 577.205 9
1 11 6 731.194 552.116 8
11 1 -6 741.132 452.615 3
1 -11 6 231.187 232.943 5
11 -1 -6 -486.242 436.492 3
-1 11 -6 -458.504 461.004 7
1 11 -6 307.52 339.069 7
-11 -1 7 582.369 315.59 1
-1 11 7 866.554 566.98 8
-11 1 7 506.259 322.469 4
-11 1 7 2023.5 675.129 1
11 1 7 962.074 351.467 5
11 -1 7 1211.69 420.509 5
1 -11 -7 1277.17 588.867 9
-1 -11 -7 708.786 351.384 9
1 11 7 195.242 393.503 8
1 -11 7 1155.07 429.024 5
11 1 -7 896.447 583.599 3
-1 -11 7 1236.28 489.4 5
11 -1 -7 973.046 530.43 3
-1 11 -7 581.243 369 7
1 11 -7 -119.419 310.733 7
-11 -1 8 191.73 180.198 4
11 1 8 453.889 315.357 5
-11 1 8 414.159 285.658 4
1 11 8 423.465 679.356 8
-11 -1 8 395.245 310.647 1
-1 11 8 444.511 251.395 4
-11 1 8 376.335 563.387 1
-1 11 -8 185.388 333.711 7
1 -11 8 48.3199 246.027 5
11 -1 8 671.534 356.886 5
1 -11 -8 578.17 516.329 9
-1 -11 -8 86.7885 377.531 9
-1 11 8 -555.517 413.663 8
-1 -11 8 314.165 310.788 5
11 1 -8 544.405 536.214 3
11 -1 -8 -882.221 553.775 3
11 1 9 72.4843 243.9 5
-11 -1 9 0.75903 180.653 4
-11 1 9 124.061 185.191 4
-1 11 9 -15.2493 203.288 4
11 -1 9 -330.704 361.635 5
1 -11 9 357.378 353.252 5
-1 -11 9 59.7702 342.295 5
-11 -1 10 -282.237 280.806 4
-11 1 10 -159.002 207.33 4
11 1 10 218.684 330.854 5
-1 11 10 243.344 283.302 4
11 -1 10 -158.698 321.867 5
1 -11 10 -919.973 421.642 5
-1 -11 10 30.9978 340.363 5
-11 -1 11 341.97 265.941 4
-11 1 11 254.42 279.861 4
11 1 11 -265.737 324.253 5
-1 11 11 -86.1774 216.31 4
11 -1 11 537.393 371.469 5
1 -11 11 286.238 283.02 5
-1 -11 11 104.191 246.804 5
-11 -1 12 -37.5101 197.913 4
11 -1 12 112.927 255.652 5
-11 1 12 -190.625 209.352 4
11 1 12 125.689 213.809 5
-1 11 12 -366.73 246.35 4
1 -11 12 253.684 265.47 5
-1 -11 12 50.5515 249.936 5
-11 -1 13 -10.2086 173.747 4
-11 1 13 -142.514 189.882 4
11 -1 13 228.196 208.14 5
1 -11 13 58.3281 234.579 5
-1 -11 13 48.7697 201.383 5
-11 1 14 -83.0518 184.205 4
1 -11 14 29.7708 181.498 5
-1 -11 14 219.293 194.2 5
-11 -1 14 -188.883 169.374 4
2 11 0 -331.214 337.796 7
11 2 0 -523.87 397.124 2
11 -2 0 -18.6953 342.263 2
-11 -2 0 57.9763 350.056 1
2 -11 0 -65.5062 232.097 9
-2 -11 0 650.773 411.05 9
-11 2 0 108.782 238.753 1
-11 -2 0 214.462 321.121 9
11 2 0 -35.3206 248.238 3
-2 11 0 206.253 309.715 7
11 -2 0 246.277 271.427 3
2 11 1 1332.13 486.326 7
-11 -2 1 573.7 384.358 1
11 -2 1 549.504 377.164 2
11 2 1 805.85 352.063 2
-11 -2 -1 989.616 421.006 9
-2 11 1 1233.99 532.448 8
-11 2 -1 551.92 291.738 1
2 -11 -1 952.105 488.772 9
11 -2 1 827.412 406.295 3
2 -11 1 919.801 312.712 9
-2 -11 -1 362.151 265.297 9
-2 -11 1 668.8 385.548 9
-2 11 1 1223.46 451.892 7
2 11 1 1064.65 480.069 8
-11 2 1 1588.6 452.624 1
11 2 -1 879.893 408.889 3
11 -2 -1 734.671 316.213 3
-2 11 -1 976.833 460.189 7
-11 -2 1 833.159 387.728 9
2 11 -1 1377.02 451.526 7
-11 -2 2 32744.9 2063.29 1
11 -2 2 31360.6 2160.15 2
11 2 2 32519.7 2176.54 2
11 2 -2 28683.6 1928.58 3
2 -11 -2 33209.8 2171.31 9
2 -11 2 30803.6 1760.52 9
-2 -11 -2 33776.8 2155.47 9
11 -2 -2 32771.1 2115.83 3
-2 -11 2 29404.5 1820.48 9
-11 -2 -2 29504.6 1958.94 9
-11 -2 2 33028.6 2100.56 9
11 -2 2 30114.1 1811.59 3
-2 11 2 27464.7 2023.08 8
2 11 2 28010.3 2032.05 8
-11 2 -2 27282.4 1595.13 1
-2 11 -2 30022 2056.57 7
-11 2 2 31425.8 1970.17 1
2 11 -2 26893.5 1937.3 7
-2 11 2 30080.1 1988.41 7
2 11 2 31730.8 2090.46 7
2 -11 -3 28286.5 2100.67 9
11 -2 3 26223.7 1963.26 2
11 2 3 25600.6 1940.18 2
-2 11 -3 24178.1 1878.64 7
11 2 -3 23097.1 1798.9 3
-2 -11 -3 24369.9 1902.13 9
11 -2 -3 24090.8 1901.43 3
-2 -11 3 23051.5 1586.3 9
-11 -2 -3 23660.6 1792.57 9
2 -11 -3 23999.7 1757.13 3
-2 11 3 21298 1842.15 8
2 11 3 25089.9 1961.45 8
-11 -2 3 25925.8 1912.22 1
2 11 -3 22720.1 1842.19 7
-2 11 3 21786.7 1689.11 7
2 11 3 22791.2 1842.66 7
-11 2 3 25152.5 1895.33 1
11 -2 -4 15805.7 1631.68 3
2 -11 -4 16784.6 1528.1 3
11 -2 4 17407.4 1665.16 2
11 2 4 16884.4 1642.06 2
11 2 -4 18323.1 1709.81 3
2 -11 -4 17904.8 1740.52 9
-2 -11 -4 14797.5 1522.39 9
-11 -2 -4 15703.7 1449.59 9
-2 11 4 14825.8 1593.4 8
2 11 4 13875.6 1575.91 8
-11 -2 4 17090 1665.64 1
-2 11 -4 16476.3 1638.19 7
2 11 -4 15933.9 1571.02 7
-2 11 4 14614 1381.25 7
-11 2 4 16445 1613.65 1
-2 11 5 355.278 430.708 8
-11 2 5 130.141 342.458 1
11 2 5 -80.4998 252.121 5
11 2 5 333.595 301.338 2
11 -2 5 440.988 471.066 2
2 -11 5 -145.9 207.169 5
2 -11 -5 344.533 330.056 9
-2 -11 -5 922.451 448.778 9
2 11 5 794.032 543.091 8
11 2 -5 513.494 367.168 3
-11 -2 5 946.296 489.195 1
11 -2 -5 723.305 450.255 3
-2 11 -5 1019.4 485.67 7
2 11 -5 342.415 273.035 7
11 2 6 185.037 234.067 5
11 2 -6 95.7444 236.548 6
-11 2 6 206.374 345.412 1
11 -2 -6 -121.358 261.371 6
2 -11 -6 -5.99395 320.893 9
-2 11 -6 -451.347 297.132 7
11 -2 6 167.437 244.411 5
2 11 6 96.5377 502.239 8
-2 -11 -6 -5.85425 386.524 9
11 2 -6 -325.86 433.646 3
2 -11 6 57.916 235.712 5
11 -2 -6 -275.115 351.537 3
2 11 -6 -668.766 497.898 7
-11 -2 6 343.979 356.161 1
2 11 7 509.277 509.504 8
-11 -2 7 1102.69 597.567 1
11 -2 -7 898.691 318.817 6
-2 -11 -7 873.624 447.904 9
-11 2 7 369.484 240.382 4
-11 2 7 845.079 503.453 1
11 -2 7 790.007 364.496 5
2 -11 -7 14.4635 304.502 9
11 2 7 518.382 364.103 5
-2 11 7 62.3671 450.55 8
2 -11 7 886.757 425.775 5
11 2 -7 643.893 418.129 3
-2 -11 7 1199.43 438.046 5
11 -2 -7 1504.77 644.418 3
-2 11 -7 718.305 545.733 7
2 11 -7 1372.07 623.918 7
-11 2 8 1224.37 352.531 4
-11 -2 8 1991.44 681.45 1
-2 11 8 1358.84 391.59 4
11 2 8 1553.42 474.031 5
-11 2 8 1969.4 685.732 1
11 -2 8 2052.26 510.934 5
2 -11 -8 664.506 544.554 9
-2 -11 -8 890.223 504.833 9
2 -11 8 2049.09 601.061 5
2 11 8 393.127 635.2 8
-2 11 8 1239.73 634.892 8
11 2 -8 1597.03 759.974 3
-2 -11 8 1664.31 522.888 5
11 -2 -8 1038.24 623.975 3
-11 2 -8 194.008 377.931 7
-2 11 -8 271.468 384.191 7
-11 -2 9 1218.26 391.073 4
-11 2 9 1349.1 390.275 4
-2 11 9 1807.71 475.383 4
11 2 9 861.332 370.852 5
11 -2 9 1331.44 455.107 5
-2 -11 9 1565.35 543.183 5
2 -11 9 1437.56 510.164 5
-11 -2 10 704.672 294.014 4
-11 2 10 718.903 334.45 4
11 2 10 933.078 465.578 5
-2 11 10 429.623 271.218 4
11 -2 10 1773.69 478.338 5
2 -11 10 914.09 458.286 5
-2 -11 10 989.208 464.411 5
-11 -2 11 962.983 360.171 4
11 2 11 995.018 412.897 5
-11 2 11 757.034 308.648 4
-2 11 11 1275.99 401.131 4
11 -2 11 1373.77 474.456 5
2 -11 11 1528.79 501.039 5
-2 -11 11 865.348 421.044 5
-11 -2 12 -16.4412 187.283 4
-11 2 12 -505.921 284.233 4
-2 11 12 -179.383 219.08 4
2 -11 12 339.731 307.249 5
-2 -11 12 -538.049 342.283 5
11 -2 12 -98.7578 301.193 5
-11 -2 13 -279.429 192.162 4
-11 2 13 312.396 252.01 4
-2 11 13 424.591 237.295 4
-2 -11 13 696.438 320.385 5
11 -2 13 4.8719 266.146 5
2 -11 13 62.2452 246.49 5
-11 2 14 -24.8596 138.003 4
2 -11 14 -42.1848 152.954 5
-2 -11 14 122.227 160.319 5
-11 -2 14 15.005 135.831 4
11 3 0 30525.9 2109.23 2
11 -3 0 28718.4 2077.5 2
3 -11 0 29982.5 1915.91 9
11 3 0 26815.1 1632.27 3
-3 -11 0 31438.8 1999.35 9
-11 -3 0 29157.6 1990.05 9
11 -3 0 30213.6 1975.47 3
-11 3 0 28978.8 1730.29 1
-3 11 0 28263.3 1936.82 7
3 11 0 27981.4 1944.86 7
3 11 1 16164.5 1545.38 8
11 -3 1 17584.2 1607.58 2
11 3 1 17320.6 1564.3 2
11 3 -1 15857.6 1333.93 3
11 -3 1 16927.9 1449.47 3
3 -11 -1 17766 1555.28 9
3 -11 1 17497.4 1384.1 9
-3 -11 -1 16859.6 1517.82 9
-3 -11 1 15870.4 1403.23 9
11 -3 -1 17094.8 1524.81 3
-11 -3 -1 15543.8 1410.66 9
-11 -3 1 16820.5 1492.81 9
-3 11 1 16765 1542.83 8
-11 -3 1 17942.1 1508.44 1
-11 3 -1 15783.4 1246.36 1
-3 11 -1 17205.5 1534.39 7
-3 11 1 17264.4 1522.12 7
-11 3 1 16587.1 1380.7 1
3 11 -1 16176.3 1507.31 7
3 11 1 16257.7 1503.81 7
11 3 -2 11596.3 1219.35 3
11 -3 2 12060.8 1373.48 2
11 3 2 12719.1 1385.87 2
3 -11 -2 12392 1335.4 3
3 -11 -2 11872.5 1313.33 9
-3 -11 -2 12138.8 1325.99 9
-3 -11 2 12512.3 1250.21 9
11 -3 -2 10920.1 1273.64 3
-11 -3 -2 12659.7 1332.43 9
-11 -3 2 13526.9 1427.53 9
11 -3 2 10332.7 1145.03 3
-3 11 2 10949.4 1320.64 8
3 11 2 10269.6 1272.77 8
-11 -3 2 11711.1 1264.98 1
-3 11 -2 9771.3 1203.62 7
-3 11 2 10756.8 1198.5 7
3 11 -2 12157.8 1325.03 7
3 11 2 12194.7 1367.29 7
-11 3 2 11220.4 1209.69 1
-3 11 3 2149.46 531.287 7
-11 3 3 3205.61 727.814 1
3 -11 -3 2702.97 623.579 3
-3 -11 -3 2065.76 572.195 9
11 -3 3 2212.8 593.775 2
11 3 3 3084.14 732.156 2
-11 -3 3 3053.79 728.692 1
-3 -11 3 2192.44 502.209 9
-11 -3 -3 2787.4 617.267 9
-3 11 3 1612.65 549.631 8
3 11 3 2789.4 753.175 8
11 3 -3 3094.07 712.12 3
11 -3 -3 3116.37 749.599 3
-3 11 -3 2876.77 700.162 7
3 11 -3 1314.42 339.088 7
-11 3 4 894.477 502.083 1
-3 -11 -4 274.665 273.296 9
3 -11 -4 142.592 234.512 3
-11 -3 -4 -63.3422 340.101 9
11 -3 4 -100.957 298.673 2
11 3 4 316.212 402.46 2
-11 -3 4 736.91 500.043 1
-3 11 4 8.47071 374.599 8
3 11 4 -299.043 361.155 8
11 3 -4 744.038 406.417 3
11 -3 -4 645.984 286.236 3
-3 11 -4 -262.138 319.906 7
3 11 -4 237.994 303.378 7
3 -11 -5 2117.77 692.584 9
3 -11 -5 870.241 376.995 3
11 3 5 1003.36 517.507 2
-11 3 5 1280.65 575.803 1
11 -3 -5 665.436 263.181 6
11 3 5 847.182 397.238 5
-3 11 5 1054.57 481.188 1
-3 -11 -5 854.985 476.105 9
11 -3 5 1502.03 559.759 2
-11 -3 -5 1681.51 579.807 9
-3 11 5 270.153 396.643 8
3 11 5 1283.41 657.821 8
11 3 -5 1654.63 631.794 3
-11 -3 5 981.832 438.172 1
3 -11 5 679.118 320.801 5
11 -3 -5 668.667 400.578 3
-3 11 -5 696.899 389.548 7
3 11 -5 837.389 459.958 7
-3 11 6 779.27 578.994 1
11 3 6 1429.48 572.165 5
11 3 -6 929.431 377.928 6
3 11 6 444.15 380.169 8
11 -3 -6 920.688 313.746 6
-11 3 6 799.917 439.924 1
-11 3 6 1353.03 407.537 4
11 -3 6 988.621 349.028 5
3 -11 -6 905.629 594.278 9
-3 -11 -6 877.452 431.515 9
-3 11 6 180.225 462.797 8
11 3 -6 1554.81 669.787 3
3 -11 6 1348.22 438.003 5
-11 3 -6 -715.337 460.576 7
11 -3 -6 588.428 513.376 3
-11 -3 6 980.542 577.959 1
-3 11 -6 901.346 494.321 7
3 11 -6 1167.14 531.349 7
-11 -3 7 735.179 556.506 1
-11 3 7 311.683 330.989 1
-3 11 7 -295.458 491.544 1
11 -3 -7 243.71 216.498 6
-11 3 7 47.2689 206.054 4
3 -11 -7 15.7617 238.783 6
11 -3 7 287.39 242.644 5
3 -11 -7 495.412 355.248 9
-3 -11 -7 52.0953 358.436 9
3 -11 7 602.967 306.16 5
-3 11 7 -420.322 514.334 8
3 11 7 -201.874 512.547 8
11 3 -7 -897.221 574.535 3
11 3 7 346.294 296.647 5
-11 3 -7 327.017 506.45 7
11 -3 -7 244.259 428.718 3
-3 11 -7 69.995 307.901 7
3 11 -7 338.715 397.261 7
-3 11 8 440.088 425.42 1
11 3 8 -10.93 320.245 5
-11 -3 8 289.379 309.515 1
3 -11 8 -153.048 347.975 5
-11 3 8 223.577 260.445 4
-3 11 8 268.437 268.006 4
11 -3 8 110.501 249.669 5
3 -11 -8 170.099 279.922 9
-11 3 8 127.195 301.876 1
-3 -11 -8 -279.586 336.754 9
3 11 8 -46.5555 320.955 8
-3 11 8 -1018.1 552.275 8
11 3 -8 -282.032 530.844 3
-3 -11 8 107.611 237.733 5
-11 3 -8 -52.468 461.361 7
11 -3 -8 -183.486 492.124 3
-3 11 -8 1421.28 680.221 7
-11 -3 9 104.191 239.432 4
-11 3 9 -162.785 217.063 4
-3 11 9 234.728 249.995 4
11 -3 9 -424.038 224.286 5
3 -11 9 -64.4007 330.675 5
-3 -11 9 -104.606 326.278 5
11 3 9 -439.426 342.378 5
-11 -3 10 -107.755 228.251 4
-11 3 10 -249.757 248.252 4
-3 11 10 27.0447 243.567 4
11 3 10 -95.8756 286.212 5
11 -3 10 633.262 361.429 5
3 -11 10 -139.551 283.055 5
-3 -11 10 183.178 287.711 5
-11 -3 11 561.633 320.589 4
-11 3 11 693.014 340.484 4
-3 11 11 396.28 257.474 4
11 -3 11 492.388 304.201 5
3 -11 11 625.236 305.303 5
-3 -11 11 236.573 296.265 5
-11 -3 12 325.908 181.061 4
11 -3 12 138.871 204.988 5
-11 3 12 314.36 240.786 4
-3 11 12 777.393 304.958 4
3 -11 12 543.473 302.505 5
-3 -11 12 389.056 323.242 5
-11 3 13 606.554 253.116 4
11 -3 13 430.021 264.545 5
-3 11 13 264.74 207.66 4
3 -11 13 712.728 350.603 5
-3 -11 13 481.327 269.766 5
-11 -3 13 167.864 157.294 4
-11 3 14 191.182 173.014 4
11 -3 14 230.511 227.949 5
3 -11 14 -124.149 182.485 5
-3 -11 14 -39.337 133.338 5
-11 -3 14 150.755 148.125 4
4 11 0 128.998 384.069 7
11 -4 0 434.588 341.019 3
11 4 0 -404.065 321.116 2
11 -4 0 53.1483 293.223 2
4 -11 0 -8.15038 277.663 9
-4 -11 0 51.1517 244.554 9
-11 -4 0 193.892 259.027 9
-11 4 0 268.289 321.819 7
-11 4 0 -85.9001 229.67 1
-4 11 0 -22.9656 322.854 7
4 11 -1 3013.47 702.603 7
4 11 1 2652.8 639.192 7
11 -4 1 2298.06 566.092 3
-11 -4 1 2838.3 694.026 1
11 -4 1 2805.32 706.708 2
11 4 1 2667.68 667.375 2
4 11 1 2677.16 736.892 8
4 -11 1 2804.87 557.447 9
-4 -11 -1 2897.51 682.065 9
-4 -11 1 3170.09 688.114 9
-11 -4 -1 2532.9 623.6 9
-11 -4 1 2630.18 689.673 9
-4 11 1 3055.56 750.633 8
11 4 -1 2832.02 571.624 3
-11 4 -1 2958.54 734.453 7
-11 4 1 2461.4 586.872 7
-4 11 -1 2487.87 644.017 7
-11 4 1 3447.17 677.073 1
-4 11 1 2483.66 605.756 7
11 -4 -1 3245.54 766.548 3
11 4 -2 6716.88 928.777 3
11 -4 2 7530.79 1040.72 2
11 4 2 7934.49 1067.95 2
-4 -11 -2 7947.81 1084.25 9
-4 -11 2 6600.19 933.504 9
11 -4 -2 7735.1 1093.55 3
-11 -4 -2 7725.64 1065.96 9
-11 -4 2 7895.59 1083.67 9
11 -4 2 7211.37 1002.07 3
4 -11 -2 7407.46 1033.03 3
-4 11 2 6341.79 1078.9 8
-11 -4 2 7635.69 1044.08 1
4 11 2 5922.71 1016.92 8
-4 11 -2 7608.64 1092.33 7
-4 11 2 5974.2 889.304 7
4 11 -2 7801.66 1108.98 7
4 11 2 6773.99 1023.61 7
-11 4 2 7640.02 998.825 1
11 4 -3 7478.05 1072.7 3
11 -4 3 8477.4 1054.4 3
11 -4 3 10876.1 1303.33 2
11 4 3 9037.66 1176.27 2
4 -11 -3 8662.56 1154.57 3
-4 -11 -3 8830.46 1192.71 9
-4 -11 3 7755.36 972.259 9
11 -4 -3 8791.65 1225.44 3
-11 -4 -3 8954.82 1156.18 9
-11 -4 3 8939.2 1194.07 9
-4 11 3 8864.07 1215.81 8
4 11 3 6311.28 1026.33 8
-4 11 -3 9698.83 1280.85 7
-4 11 3 7397.65 984.766 7
4 11 -3 9138.92 1194.46 7
-11 4 3 8743.85 1123.06 1
-11 -4 3 9258.42 1210.63 1
4 11 -4 2626.38 620.933 7
4 -11 -4 4110.27 814.013 3
-11 -4 -4 4305.43 833.843 9
-11 4 4 3673.01 800.205 1
11 -4 4 4214.75 887.077 2
11 4 4 3745.92 856.942 2
-4 -11 -4 3832.29 805.52 9
-11 -4 4 5208.25 952.421 1
-4 11 4 4012.39 951.776 8
4 11 4 3292.89 822.562 8
11 4 -4 4149.81 851.785 3
-4 11 4 4210.42 789.69 1
-11 4 -4 4571.06 1015.1 7
11 -4 -4 3961.5 842.618 3
-4 11 -4 3637.84 829.909 7
4 11 -5 964.039 482.636 7
4 -11 -5 1037.4 464.019 3
4 11 5 501.936 442.965 8
11 4 -5 1193.81 357.608 6
11 4 -5 888.261 493.875 3
-4 11 5 1224.63 633.898 1
11 -4 -5 928.245 352.498 6
-11 4 5 727.407 439.875 1
-4 -11 -5 1035.08 458.744 9
-4 11 5 457.284 448.782 8
11 -4 5 735.542 435.466 2
11 4 5 1302.92 596.778 2
-11 -4 -5 986.336 410.314 9
-11 -4 5 1378.39 493.536 1
-11 4 -5 577.646 567.636 7
11 -4 -5 1506.01 602.5 3
-4 11 -5 1196.36 506.504 7
4 11 -6 -496.513 422.426 7
-4 11 6 418.919 298.194 1
11 4 -6 90.8724 183.335 6
4 11 6 -80.6467 413.859 8
11 -4 -6 -196.26 261.766 6
-11 4 6 -148.701 260.272 4
11 -4 6 69.2021 220.36 5
-4 -11 -6 -338.074 441.708 9
-11 4 6 -429.939 348.77 1
-4 11 6 -440.259 375.88 8
4 -11 6 5.29614 196.283 5
11 4 -6 8.43507 390.657 3
-11 4 -6 813.959 625.683 7
-11 -4 6 116.828 308.448 1
11 -4 -6 -220.098 366.282 3
-4 11 -6 421.796 330.378 7
-11 -4 7 856.116 576.744 1
11 4 7 1143.56 445.691 5
-4 11 7 439.937 296.992 1
11 -4 -7 243.441 193.102 6
-11 4 7 561.531 257.02 4
4 -11 -7 79.1073 196.169 6
-11 4 7 858.694 464.499 1
11 -4 7 1152.29 438.16 5
4 -11 -7 305.654 503.429 9
-4 -11 -7 180.47 361.796 9
4 -11 7 876.313 393.714 5
-4 11 7 1062.29 432.796 8
4 11 7 698.259 404.336 8
11 4 -7 -231.946 388.137 3
-11 4 -7 1846.44 728.621 7
11 -4 -7 -227.718 557.319 3
-4 11 -7 174.553 443.608 7
11 4 8 690.539 424.855 5
-11 -4 8 1395.15 625.709 1
-11 4 8 479.729 253.874 4
-4 11 8 1305.22 441.87 4
-11 4 8 348.266 384.196 1
4 -11 -8 1304.67 617.97 9
11 -4 8 1299.62 429.551 5
-4 -11 -8 834.198 408.549 9
-4 -11 8 992.982 469.334 5
-4 11 8 1044.53 520.745 1
4 -11 8 43.7906 297.615 5
4 11 8 564.584 551.315 8
-4 11 8 768.108 572.761 8
11 4 -8 453.51 366.888 3
-11 4 -8 1366.91 658.09 7
11 -4 -8 1366.25 681.919 3
-4 11 -8 1713.83 735.038 7
-11 4 9 708.754 340.341 4
-4 11 9 820.525 335.933 4
11 -4 9 629.181 379.56 5
4 -11 9 665.889 379.466 5
-4 -11 9 1931.66 577.647 5
-11 -4 10 580.757 311.278 4
-11 4 10 842.904 359.77 4
-4 11 10 330.279 259.951 4
11 -4 10 802.558 378.097 5
4 -11 10 1227.8 470.272 5
-4 -11 10 335.487 366.598 5
-11 -4 11 101.581 198.545 4
-11 4 11 119.885 268.706 4
-4 11 11 85.3534 201.013 4
11 -4 11 -48.3987 291.693 5
4 -11 11 367.591 360.669 5
-4 -11 11 -148.176 294.969 5
-11 4 12 -257.438 248.156 4
11 -4 12 -161.93 209.865 5
-4 11 12 -330.405 210.263 4
4 -11 12 12.5581 225.787 5
-4 -11 12 -548.035 328.964 5
-11 -4 12 -134.021 223.966 4
-11 4 13 52.3066 163.792 4
-4 -11 13 24.0465 168.258 5
-4 11 13 115.382 176.97 4
11 -4 13 224.686 248.219 5
4 -11 13 178.745 222.249 5
-11 -4 13 7.87617 188.176 4
-11 4 14 -182.203 168.316 4
-4 11 14 -455.694 160.22 4
11 -4 14 222.12 205.402 5
4 -11 14 337.927 216.406 5
11 5 0 16150.2 1558.02 2
11 -5 0 15518.2 1507.86 2
-5 -11 0 17248.9 1543.06 9
-11 -5 0 15016.8 1454.8 9
11 -5 0 17828.4 1652.68 3
-11 5 0 16981.6 1571.82 7
-5 11 0 15432.3 1476.66 7
5 11 0 14820.1 1511.22 7
11 5 -1 20480.2 1508.97 3
11 -5 1 22140.4 1800.82 3
11 -5 1 22704.1 1840.37 2
11 5 1 23791.6 1842.38 2
-11 -5 1 24130.6 1888.3 1
5 -11 1 22272.4 1609.25 9
-5 -11 -1 21333.9 1751.56 9
-5 -11 1 22598.8 1775.08 9
-11 -5 -1 22161.8 1776.3 9
-11 -5 1 22622.4 1773.54 9
11 -5 -1 20533.5 1805.02 3
5 -11 -1 23421.7 1876.38 3
-5 11 1 18457 1753.35 8
5 11 1 18653.3 1711.84 8
-11 5 -1 22181.4 1906.27 7
-11 5 1 20659.7 1595.77 7
-5 11 -1 22876 1882.19 7
-5 11 1 21062.1 1700.5 7
5 11 -1 22214.8 1802.82 7
5 11 1 20804.1 1790.74 7
5 -11 -2 5418.45 928.249 3
11 -5 2 5352.63 892.823 2
11 -5 2 5892.41 948.508 3
5 11 2 5350.73 938.373 8
11 5 2 4782.05 851.904 2
-5 11 2 4413.18 898.943 8
-5 -11 2 5606.4 956.329 9
11 -5 -2 6284.6 1064.29 3
-5 -11 -2 5747.49 948.926 9
-11 -5 -2 5883.36 927.75 9
-11 -5 2 5589.55 929.529 9
-11 -5 2 6229.31 985.217 1
11 5 -2 5148.37 822.063 3
-11 5 -2 7019.45 1149.87 7
-5 11 2 5757.57 898.233 7
5 11 -2 5995.46 963.461 7
-5 11 -2 5306.35 977.642 7
-11 5 2 5542.57 861.152 1
5 11 -3 -177.347 315.508 7
5 -11 -3 434.522 357.823 3
11 -5 3 529.749 350.177 2
-11 5 3 273.496 318.211 1
-5 -11 3 417.918 234.33 9
-11 -5 -3 238.877 333.582 9
-5 -11 3 -72.6651 254.279 1
11 5 3 -253.984 252.253 2
-11 -5 3 393.634 326.759 1
-5 -11 -3 -43.3259 312.131 9
-11 -5 3 465.628 371.265 9
-5 11 3 264.406 347.642 8
5 11 3 611.803 382.388 8
11 5 -3 -220.024 370.571 3
-11 5 -3 -65.8906 473.802 7
-5 11 -3 1.40696 373.534 7
11 -5 -3 -198.225 339.382 3
11 5 -4 5897.16 749.116 6
-11 -5 -4 5612.13 995.726 9
5 -11 -4 4626.83 904.584 3
-5 11 -4 5722.24 1056.12 7
11 5 4 5100.98 908.104 2
-11 5 4 5601.3 933.93 1
11 -5 -4 5030.27 681.457 6
-11 -5 4 6202.54 1056.74 1
11 -5 4 5754.64 1024.83 2
-5 -11 -4 4802.61 901.335 9
-5 11 4 5042.26 834.703 1
-5 11 4 3169.7 869.577 8
5 11 4 5656.67 1047.55 8
11 5 -4 5584.32 1012.32 3
5 11 -4 5874.9 1004.1 7
-11 5 -4 5376.08 1119.18 7
11 -5 -4 5472.48 1022.53 3
11 5 -5 7877.6 852.542 6
11 -5 -5 7652.59 851.063 6
5 -11 -5 9152.67 952.146 6
-11 5 5 9307.87 1250.54 1
11 -5 5 8953.32 1273.21 2
-5 11 5 9312.3 1252.83 1
11 5 5 8252.38 1240.61 2
5 -11 5 7463.92 904.332 5
-11 5 -5 7485.66 844.902 10
11 5 -5 7836.18 1255.64 3
-5 -11 -5 8647.04 1253.12 9
11 -5 -5 9767.79 1392.77 3
-11 -5 -5 8451.41 1173.65 9
5 -11 -5 8641.67 1247.51 3
-5 11 5 8257.23 1296.24 8
5 11 5 8405.12 1380.44 8
-11 5 -5 10351.3 1569.63 7
-11 -5 5 9912.07 1393.4 1
-5 11 -5 10310 1485.02 7
5 11 -5 7920.33 1148.56 7
5 11 -6 3854.39 837.947 7
11 5 -6 4433.33 653.808 6
11 -5 -6 5262.43 717.317 6
11 5 -6 5884.04 1199.97 3
5 -11 -6 4719.05 671.977 6
5 -11 -6 4161.59 896.386 3
-5 11 6 5037.67 956.694 1
11 -5 6 4677.55 716.362 5
5 -11 6 5033.82 751.646 5
-11 5 6 4855.65 953.896 1
-5 -11 -6 5067.95 987.583 9
5 11 6 4717.65 1024.86 8
-5 11 6 3535.16 885.869 8
-11 5 6 5029.23 726.799 4
-11 -5 6 6318.09 1184.42 1
-11 5 -6 4930.52 1153.42 7
11 -5 -6 5037.2 1045.62 3
-5 11 -6 4819.23 1068.25 7
-11 -5 7 3008.54 852.73 1
11 -5 -7 2207.55 486.019 6
-11 5 7 2822.75 567.506 4
5 -11 -7 2498.1 503.657 6
5 -11 7 2345.81 589.715 5
-5 11 7 1544.23 525.354 1
11 -5 7 2259.04 509.909 5
-5 -11 -7 2524.44 775.504 9
-11 5 7 1444.37 639.301 1
11 5 -7 2124.16 754.802 3
-5 11 7 2334.47 866.749 8
5 11 7 2595.13 861.171 8
-11 5 -7 2433.26 864.95 7
11 -5 -7 2203.06 765.062 3
-5 11 -7 3392.11 1065.94 7
-11 5 8 595.903 369.94 4
5 -11 -8 739.925 361.311 6
-5 11 8 1092.37 388.506 4
11 -5 8 768.099 398.335 5
5 -11 8 835.911 392.211 5
-5 -11 8 818.905 371.746 5
-11 5 9 345.685 332.414 4
-5 11 9 225.688 292.033 4
11 -5 9 59.091 248.204 5
5 -11 9 201.069 295.306 5
-5 -11 9 65.4154 270.451 5
5 -11 10 72.4015 227.822 5
-11 5 10 -80.9432 271.999 4
-5 11 10 -198.35 241.79 4
11 -5 10 173.309 269.045 5
-5 -11 10 33.5055 239.864 5
5 -11 11 436.055 354.24 5
-11 5 11 486.8 300.156 4
-5 11 11 -44.8733 242.779 4
-11 -5 11 291.93 229.118 4
11 -5 11 737.284 396.575 5
-5 -11 11 275.473 260.192 5
-11 5 12 469.871 258.874 4
-5 11 12 701.516 304.387 4
11 -5 12 804.34 379.428 5
5 -11 12 192.838 264.081 5
-5 -11 12 232.349 255.115 5
-11 -5 12 381.267 205.69 4
-11 5 13 36.8683 189.231 4
-5 11 13 82.0482 173.809 4
5 -11 13 172.163 217.468 5
-5 -11 13 140.743 185.254 5
11 -5 13 -325.776 190.568 5
-11 5 14 -18.2478 126.818 4
-5 11 14 -66.415 156.168 4
11 -5 14 -222.87 168.912 5
5 -11 14 -28.0758 150.377 5
6 11 0 147.297 435.378 7
11 -6 0 507.055 428.377 3
11 6 0 136.14 292.662 2
11 -6 0 -238.271 398.959 2
-6 -11 0 24.0625 283.77 9
-11 -6 0 354.602 365.943 9
-6 11 0 770.305 408.135 8
6 11 0 -370.798 282.483 8
-11 6 0 -148.72 238.854 7
-6 11 0 -104.356 339.135 7
6 11 -1 1681.72 603.083 7
11 -6 -1 574.831 303.615 3
11 -6 1 1495.67 594.268 3
6 -11 -1 1421.74 569.385 3
11 6 -1 885.161 446.989 2
11 -6 -1 1258.25 442.477 2
-11 -6 1 1511.85 536.993 9
11 -6 1 804.175 306.988 2
11 6 1 1156.79 468.753 2
-6 -11 -1 411.935 325.071 9
-6 -11 1 753.035 401.501 9
-11 -6 -1 903.162 451.71 9
-6 11 1 1321.77 569.661 8
6 11 1 751.599 466.861 8
-11 6 -1 888.248 489.949 7
-6 11 -1 1482.22 521.834 7
-6 11 1 958.73 379.074 7
6 11 -2 1041.89 502.377 7
11 -6 -2 1464.36 589.857 3
11 6 2 891.625 476.255 2
6 -11 -2 1166.4 579.235 3
11 -6 2 951.905 478.93 3
-11 -6 2 953.868 396.102 1
11 -6 2 841.105 399.633 2
6 11 2 1182.76 526.396 8
-6 -11 -2 1132.7 452.633 9
-6 -11 2 571.282 418.721 9
-11 -6 -2 1269.14 451.934 9
-11 -6 2 1301.41 486.285 9
-6 11 2 414.278 265.169 8
11 6 -2 648.426 323.404 3
-11 6 -2 709.777 453.313 7
-6 11 -2 1155.06 543.7 7
-6 11 2 1233.71 475.256 7
6 11 -3 198.816 287.33 7
6 -11 -3 -50.8461 422.444 3
-6 -11 3 -322.191 356.593 1
11 6 -3 -102.286 252.086 6
-6 -11 -3 359.842 305.341 9
11 -6 -3 -21.0137 179.842 6
-11 6 3 37.3542 239.192 1
11 -6 3 273.746 325.694 2
11 6 3 147.997 249.116 2
-6 -11 3 -119.49 333.141 9
-11 -6 -3 630.187 359.053 9
-11 -6 3 129.475 321.91 9
-6 11 3 -571.31 490.793 8
6 11 3 646.011 442.016 8
11 6 -3 -280.766 411.776 3
-11 -6 3 238.59 347.633 1
-11 6 -3 653.984 481.674 7
-6 11 -3 504.695 392.742 7
11 -6 -3 401.269 418.586 3
6 11 -4 481.902 342.886 7
6 -11 -4 107.041 403.058 3
11 6 4 138.846 171.314 6
11 6 -4 615.501 300.277 6
11 -6 -4 182.351 189.492 6
-11 -6 -4 226.405 364.951 9
6 -11 -4 487.892 247.373 6
-6 -11 -4 450.004 357.725 9
-11 6 4 652.11 341.069 10
-11 6 -4 420.402 294.759 10
-11 6 4 703.364 424.216 1
11 -6 4 -268.614 304.294 2
11 6 4 -22.3011 271.866 2
-11 -6 4 273.128 358.768 1
-11 -6 4 -235.368 448.451 9
11 6 -4 103.948 302.59 3
-6 11 4 204.459 301.46 8
6 11 4 -73.3192 399.93 8
-11 6 -4 381.06 406.219 7
-6 11 -4 153.429 346.911 7
11 -6 -4 210.223 324.698 3
-6 11 5 -58.2316 332.473 1
6 11 -5 305.068 440.385 7
6 -11 -5 -198.346 326.275 3
11 6 -5 260.665 238.187 6
-11 6 -5 95.8629 184.762 10
6 -11 5 -78.8791 210.768 5
11 -6 -5 10.33 240.855 6
6 -11 -5 116.974 217.805 6
-11 6 5 406.374 399.018 1
-6 -11 -5 -278.691 430.612 9
-11 -6 -5 385.136 381.697 9
-11 -6 5 -361.5 395.824 1
11 6 -5 167.656 476.029 3
-6 11 5 9.97956 406.566 8
6 11 5 -132.155 313.822 8
-11 6 -5 -103.372 453.408 7
-6 11 -5 -83.089 428.363 7
11 -6 -5 -462.748 422.668 3
6 -11 -6 355.548 315.398 3
11 -6 -6 409.159 265.65 6
-11 6 6 261.806 191.288 4
6 -11 -6 510.904 286.708 6
6 -11 6 -314.795 331.537 5
11 -6 6 609.699 305.749 5
-6 -11 -6 712.096 453.476 9
-11 -6 -6 -694.767 491.244 9
-11 6 6 423.219 436.271 1
11 6 -6 -447.729 361.591 3
-6 11 6 227.56 352.236 8
6 11 6 171.617 435.787 8
-11 -6 6 744.15 558.076 1
-11 6 -6 1365.32 658.182 7
-6 11 -6 288.255 383.092 7
11 -6 -6 55.9355 337.022 3
-6 11 6 540.683 330.726 1
-11 -6 7 -87.402 319.117 1
-6 11 7 5.00838 317.486 1
11 -6 -7 695.948 341.017 6
-11 6 7 413.116 301.743 4
6 -11 -7 500.673 290.02 6
11 -6 7 436.777 295.85 5
-6 -11 -7 -410.947 288.621 9
6 -11 7 193.478 212.99 5
11 6 -7 194.606 396.454 3
-6 11 7 328.762 462.529 8
6 11 7 1497.39 692.417 8
-11 6 7 -147.664 324.347 1
-11 6 -7 -56.0066 441.716 7
-6 11 -7 -14.421 397.625 7
11 -6 -7 -506.664 527.192 3
11 -6 -8 275.296 267.382 6
-11 6 8 179.495 297.319 4
6 -11 -8 -279.331 278.054 6
-6 11 8 469.509 325.842 4
11 -6 8 -521.171 390.127 5
6 -11 8 -256.327 306.591 5
-6 -11 8 -187.388 286.319 5
11 -6 9 1469.96 460.373 5
-11 6 9 557.122 345.378 4
-6 11 9 1380.59 437.998 4
6 -11 9 702.409 385.746 5
-6 -11 9 854.352 382.028 5
-11 6 10 96.7376 232.133 4
-6 11 10 -290.216 267.944 4
11 -6 10 460.493 342.931 5
6 -11 10 402.244 330.684 5
-6 -11 10 70.2178 270.179 5
-11 6 11 -17.7643 211.77 4
-6 11 11 21.8838 257.728 4
6 -11 11 -57.5529 255.835 5
11 -6 11 357.447 293.728 5
-6 -11 11 105.584 266.401 5
-11 6 12 319.544 239.226 4
-6 11 12 -379.323 224.278 4
11 -6 12 328.269 251.142 5
6 -11 12 183.721 271.783 5
-6 -11 12 4.21275 187.403 5
11 -6 13 -376.65 286.198 5
-11 6 13 86.4661 169.548 4
-6 11 13 184.668 159.45 4
6 -11 13 273.66 219.591 5
-11 6 14 -200.274 163.513 4
11 -6 14 -168.155 170.412 5
6 -11 14 -85.9723 145.177 5
11 7 0 46047.5 2028.21 6
-7 11 0 44558.3 2685.8 7
7 -11 0 45355.8 2726.6 3
11 -7 0 41707.9 2503.74 2
11 7 0 42940.7 2465.18 2
7 11 0 40932.8 1892.74 6
-11 -7 0 44050 2600.26 9
11 -7 0 44522 2753.83 3
-7 -11 0 45069.3 2707.65 9
-7 11 0 36922.1 2373.77 8
-11 7 0 44635.6 2601.84 7
7 11 1 13963.9 1499.07 8
7 11 1 21482.1 1356.59 6
7 11 -1 19994.4 1321.59 6
11 7 1 21867.6 1404.6 6
11 7 -1 23627.2 1474.21 6
11 -7 -1 20059.2 1330.16 6
7 -11 -1 21418.9 1417.36 6
11 7 -1 21087.3 1767.7 2
11 -7 -1 19560.5 1726.83 2
11 -7 -1 21742.5 1982.85 3
11 -7 1 19522.6 1699.38 2
11 7 1 23351.2 1831.85 2
-7 -11 -1 24252.1 1966.07 9
-7 -11 1 22830.4 1891.73 9
-11 -7 -1 24319.1 1937 9
-11 -7 1 21930 1858.13 9
11 -7 1 23227.1 1984.8 3
7 -11 -1 20975.5 1926.78 3
-7 11 1 14915.6 1595.2 8
-11 7 -1 21235.8 1908.45 7
-7 11 -1 24082.5 2064.07 7
-7 11 1 21673 1776.02 7
7 11 -1 22317.6 1930.4 7
7 11 -2 2937.06 740.02 7
11 -7 -2 3304.03 838.757 3
7 11 2 2489.15 490.522 6
7 11 -2 3080.44 541.247 6
7 -11 -2 2432.03 669.878 3
11 7 2 3000.23 548.774 6
11 -7 2 2623 723.288 3
11 7 -2 3452.75 587.383 6
11 -7 -2 3453.29 562.872 6
7 -11 -2 3342.73 579.295 6
-11 -7 2 2473.28 791.804 1
-7 -11 -2 3403.52 759.606 9
-11 7 2 2502.56 532.595 10
11 -7 2 2069.95 552.494 2
11 7 2 2982.78 679.543 2
-7 -11 2 3415.81 771.833 9
-11 -7 -2 3919.41 821.455 9
-11 -7 2 3536.78 787.167 9
-7 11 2 876.466 506.809 8
-11 7 -2 3515.21 841.243 7
-7 11 -2 3290.42 787.858 7
7 11 2 2768.19 742.317 8
7 11 -3 441.058 325.342 7
11 -7 -3 355.843 412.173 3
7 11 -3 335.68 254.284 6
7 -11 -3 4.3897 328.151 3
-11 7 3 29.3888 257.193 10
11 7 3 -60.7042 173.778 6
11 7 -3 357.369 316.297 6
-7 -11 3 209.501 381.011 1
-11 -7 -3 -169.873 404.149 9
11 -7 -3 163.879 223.283 6
7 -11 -3 212.408 240.121 6
11 7 3 27.0552 296.242 2
-11 -7 3 511.793 389.466 1
11 -7 3 -273.438 336.174 2
-7 -11 -3 406.499 399.53 9
-7 -11 3 296.845 312.812 9
-11 -7 3 374.389 334.434 9
11 7 -3 115.828 267.615 3
-7 11 3 744.974 485.277 8
7 11 3 -56.8241 321.796 8
-11 7 -3 558.148 349.071 7
-7 11 -3 171.129 476.935 7
11 -7 -4 4175.43 970.191 3
7 11 -4 5437.63 990.825 7
11 7 4 4090.23 621.228 6
11 7 -4 5083.45 714.839 6
11 -7 -4 4474.6 646.208 6
7 -11 -4 5137.22 744.168 6
7 11 -4 3765.41 584.878 6
-11 7 4 4958.64 729.533 10
7 -11 -4 4370.36 943.004 3
-11 -7 -4 5629.37 1008.98 9
-7 -11 4 4243.86 782.302 1
-7 -11 -4 5383.33 1012.45 9
11 -7 4 4270.53 902.215 2
-11 -7 4 5964.09 1146.62 1
11 7 4 5560.09 980.937 2
-11 -7 4 4251.4 961.016 9
-11 7 4 4401.34 870.223 1
11 7 -4 4319.75 942.598 3
-7 11 4 3463.58 877.472 8
7 11 4 3992.08 901.721 8
-11 7 -4 5332 1131.07 7
-7 11 -4 4504.86 1012.08 7
11 7 5 9647.41 922.42 6
11 7 -5 10331 1029.8 6
11 -7 -5 10327.6 1014.41 6
7 -11 -5 12174.3 1100.21 6
-11 7 -5 9186.77 1009.77 10
-11 7 5 11339.3 1421.04 1
11 7 -5 11325.8 1538.15 3
7 -11 5 8859.63 962.184 5
-7 -11 -5 11779.2 1513.78 9
-11 -7 -5 9220.58 1291.49 9
11 -7 -5 10413.7 1556.18 3
7 -11 -5 10413.6 1446.95 3
7 11 5 8929.61 1400.55 8
-7 11 5 6994.04 1269.34 8
-11 -7 5 11446.8 1562.25 1
-11 7 -5 10459.3 1546.7 7
-7 11 -5 12338.9 1727.26 7
7 11 -5 7196.59 1180.16 7
11 -7 -6 9125.62 965.964 6
7 -11 -6 9293.17 992.997 6
7 -11 -6 7969.1 1288.83 3
-11 7 -6 8419.64 918.615 10
11 7 -6 10285.2 1539.51 3
11 -7 6 8947.72 977.001 5
7 -11 6 9232.52 1021.82 5
-7 -11 -6 8380.77 1295.02 9
11 -7 -6 9838.83 1506.7 3
-11 -7 -6 7588.45 1210.74 9
-7 11 6 5328.58 1109.45 8
7 11 6 6245.18 1204.43 8
-11 7 -6 11351.8 1698.28 7
-7 11 -6 9698.15 1618.74 7
-11 -7 6 9683.93 1458.77 1
-11 7 6 11652.5 1117.38 4
-11 7 6 7045.07 1231.4 1
-11 -7 7 6593.77 1203.65 1
-7 -11 -7 6031.12 1126.74 9
11 -7 -7 6810.79 848.961 6
7 -11 -7 7218.21 863.461 6
-11 7 7 5058.58 1022.63 1
11 -7 7 6282.31 889.968 5
7 -11 7 7453.12 928.462 5
11 7 -7 4131.58 1074.65 3
-11 7 7 7109.29 898.697 4
-7 11 -7 5336.23 1167.81 7
11 -7 -7 5657.95 1153.13 3
11 -7 -8 3100.84 602.577 6
-11 7 8 4280.11 723.157 4
7 -11 -8 2855.62 533.346 6
11 -7 8 3880.03 697.813 5
7 -11 8 3065.24 629.376 5
-7 -11 8 3701.38 734.479 5
-7 11 8 4545.68 748.179 4
7 -11 9 2135.65 572.936 5
-11 7 9 1734.09 485.053 4
-7 11 9 1219.7 425.079 4
11 -7 9 373.516 261.549 5
-7 -11 9 1587.01 519.581 5
-11 7 10 950.936 368.7 4
-7 11 10 1825.93 447.826 4
11 -7 10 1084 419.024 5
7 -11 10 1185.66 451.017 5
-7 -11 10 1134.36 439.688 5
-11 7 11 937.202 372.156 4
-7 11 11 689.978 290.131 4
11 -7 11 621.625 328.188 5
7 -11 11 669.583 318.337 5
-7 -11 11 1219.94 386.116 5
-11 7 12 704.705 279.819 4
-7 11 12 399.057 221.024 4
11 -7 12 404.047 269.76 5
7 -11 12 490.087 292.894 5
-7 -11 12 453.967 252.807 5
11 -7 13 290.262 223.486 5
-11 7 13 675.518 233.583 4
-7 11 13 613.057 225.085 4
7 -11 13 399.765 238.305 5
8 11 0 -70.8018 196.024 6
11 -8 0 304.661 368.558 3
11 8 0 -2.28366 236.094 6
8 -11 0 -108.993 312.007 3
11 -8 0 -160.452 247.321 6
8 -11 0 273.691 252.573 6
11 -8 0 -168.909 328.229 2
-8 -11 0 365.757 330.839 9
-11 -8 0 482.813 488.375 9
-8 11 0 436.16 369.188 8
-11 8 0 108.683 250.357 7
-8 11 0 -323.507 380.253 7
11 -8 -1 226.639 322.731 3
8 11 1 274.523 245.83 6
8 11 -1 170.493 217.1 6
11 8 1 365.361 211.594 6
11 -8 1 -306.019 361.651 3
8 -11 -1 181.576 339.926 3
11 8 -1 263.345 250.749 6
11 -8 1 232.559 259.661 6
11 -8 -1 645.257 288.966 6
8 -11 1 241.422 251.722 6
8 -11 -1 -18.6999 293.584 6
-8 -11 -1 -377.105 333.727 9
-8 -11 1 -542.002 408.398 9
-11 -8 -1 -113.454 404.867 9
-11 -8 1 246.454 336.127 9
-8 11 -1 86.391 269.366 8
-8 11 1 106.398 278.89 8
11 -8 1 69.4446 265.88 2
-11 8 -1 570.825 402.456 7
-8 11 -1 499.089 462.505 7
-8 11 1 1335.03 583.158 7
11 -8 -2 -62.6553 318.792 3
8 11 2 -365.189 253.033 6
8 11 -2 -253.813 257.019 6
8 -11 -2 -377.175 518.17 3
11 8 2 -346.704 304.321 6
11 8 -2 -433.298 253.502 6
-11 -8 2 -95.9319 302.575 9
11 -8 2 210.557 230.528 6
11 -8 -2 -544.608 343.55 6
-8 -11 2 516.371 370.467 1
8 -11 2 -42.297 203.479 6
8 -11 -2 -587.838 366.469 6
-11 -8 2 -359.206 370.872 1
-8 -11 -2 184.093 311.288 9
-8 11 2 190.345 311.47 8
11 -8 2 192.097 346.706 2
-11 -8 -2 386.498 262.782 9
-8 -11 2 -713.638 406.932 9
-11 8 -2 84.0091 416.087 7
-8 11 -2 212.822 374.677 7
11 -8 -3 -220.421 417.662 3
8 11 3 -60.8376 217.556 6
8 11 -3 217.376 180.259 6
8 -11 -3 -6.28684 304.916 3
11 8 3 -7.43228 247.918 6
11 8 -3 343.875 290.857 6
11 -8 -3 134.671 201.473 6
8 -11 -3 -206.656 251.111 6
-8 -11 3 -98.533 254.299 1
-11 8 3 137.333 225.972 10
-11 -8 3 -244.532 344.366 1
-8 -11 -3 -124.647 325.59 9
-11 -8 -3 120.245 342.816 9
-8 -11 3 -359.094 343.367 9
-11 -8 3 32.5375 306.078 9
11 8 -3 -130.213 320.568 3
-11 8 -3 997.616 419.392 7
-8 11 -3 197.051 409.418 7
11 -8 -4 -828.378 533.62 3
8 11 -4 -95.467 219.887 6
8 -11 -4 520.91 439.238 3
11 8 4 225.44 239.075 6
11 8 -4 -90.4649 249.874 6
11 8 -4 474.111 522.04 3
-11 8 4 -112.408 232.516 10
11 -8 -4 -67.7163 237.849 6
8 -11 -4 326.014 253.234 6
-11 -8 4 110.345 349.941 9
-8 -11 4 22.4045 308.937 1
-8 -11 -4 -22.7092 372.435 9
-11 -8 4 76.157 317.325 1
-11 -8 -4 342.235 448.559 9
-8 -11 4 -280.198 234.197 9
-11 8 -4 -266.042 398.086 7
-8 11 -4 -154.314 428.435 7
11 -8 -5 2104.36 725.626 3
11 8 5 1309.16 384.017 6
8 -11 -5 1465.23 595.149 3
11 8 -5 1891.28 464.917 6
11 -8 -5 1393.55 416.178 6
8 -11 -5 2169.24 497.651 6
-8 -11 -5 1118.81 541.171 9
-11 -8 -5 1242.52 534.91 9
11 8 -5 2243.79 785.572 3
-11 -8 5 1504.32 670.54 1
-11 8 -5 2334.52 746.78 7
-8 11 -5 3062.44 934.867 7
11 -8 -6 -15.4362 453.164 3
8 -11 -6 701.428 450.275 3
-11 8 6 -168.907 282.822 1
-11 8 -6 85.0219 224.742 10
11 -8 -6 -303.931 295.658 6
8 -11 -6 366.937 239.844 6
8 11 -6 916 463.242 3
-8 -11 -6 467.821 342.792 9
-11 -8 -6 -92.5368 274.19 9
8 -11 6 578.628 278.715 5
11 8 -6 236.504 424.076 3
-11 -8 6 117.285 273.938 1
-11 8 -6 399.373 526.532 7
-8 11 -6 -12.9234 382.148 7
11 -8 -7 494.503 296.359 6
8 -11 -7 636.171 330.92 6
-11 8 7 828.987 413.376 4
11 -8 7 553.499 356.844 5
8 -11 7 620.444 291.435 5
-8 -11 8 2962.06 672.87 5
11 -8 -8 1786.17 454.363 6
-11 8 8 3153.63 641.037 4
8 -11 -8 2811.31 575.585 6
-8 11 8 1640.7 476.839 4
11 -8 8 2107.76 525.662 5
8 -11 8 2916.11 625.924 5
-11 8 9 171.298 227.466 4
8 -11 9 -19.8601 254.704 5
-8 11 9 -197.113 232.082 4
11 -8 9 -116.902 237.63 5
-8 -11 9 86.8846 227.667 5
-11 8 10 -126.895 274.651 4
-8 11 10 -191.498 256.66 4
11 -8 10 206.914 208.533 5
8 -11 10 -100.065 297.449 5
-8 -11 10 -115.378 257.488 5
-11 8 11 -160.97 220.212 4
-8 11 11 20.8478 188.894 4
-8 -11 11 287.726 195.914 5
11 -8 11 -102.776 307.394 5
8 -11 11 -23.861 223.316 5
-11 8 12 -122.37 193.573 4
-8 11 12 184.618 202.027 4
11 -8 12 -327.987 266.245 5
8 -11 12 -28.8782 217.355 5
11 -8 13 -202.075 203.683 5
-11 8 13 -84.7814 165.984 4
-8 11 13 -63.6971 143.433 4
8 -11 13 -361.018 228.991 5
9 11 0 28512.7 1662.24 6
11 9 0 31219.6 1744.59 6
11 -9 0 27983.3 1634.8 6
9 -11 0 28098.6 1656.64 6
11 -9 0 29667.7 2396.87 3
-9 -11 0 27562.6 2219.53 9
-11 -9 0 26700.4 2191.29 9
9 -11 0 27576 2300.84 3
-11 9 0 27061.1 2173.32 7
-9 11 0 26960.1 2242.39 7
9 11 1 25994.7 1581.83 6
9 11 -1 24741.1 1571.57 6
11 9 1 27299.8 1629.34 6
11 9 -1 26146.3 1622.11 6
11 -9 1 20717.6 1392.04 6
11 -9 -1 22235.7 1489.82 6
9 -11 1 19934.6 1359.52 6
9 -11 -1 24682.2 1560.01 6
-9 -11 -1 23113.1 2053.43 9
-9 -11 1 24453.6 2125.7 9
-11 -9 -1 24658.2 2081.74 9
-11 -9 1 24393.7 2138.88 9
11 -9 -1 23906.1 2210.06 3
9 -11 -1 21797.5 2066.57 3
11 -9 1 23579.6 2154.89 3
-11 9 -1 22977.9 2104.25 7
-9 11 -1 22364.6 2132.76 7
9 11 -2 5022.43 761.013 6
11 9 2 5338.63 756.718 6
11 9 -2 5705.51 807.371 6
11 -9 2 4072.13 650.428 6
11 -9 -2 4917.65 705.328 6
9 -11 -2 6158.8 815.871 6
11 -9 -2 4803.34 1022.02 3
9 -11 -2 5738.13 1104.8 3
9 11 2 5230.12 741.534 6
9 -11 2 4042.46 613.098 6
-9 -11 2 4881.17 1025.21 1
-11 -9 2 4897.49 1106.96 1
-9 -11 -2 4306.01 912.654 9
-11 -9 -2 4321.49 963.069 9
-9 -11 2 4938.77 1002.99 9
-11 -9 2 4753.52 941.119 9
-11 9 -2 4500.57 1021.92 7
-9 11 -2 4771.68 1045.01 7
11 -9 -3 418.514 515.465 3
9 11 3 401.235 298.039 6
9 11 -3 218.369 294.357 6
11 9 3 329.352 274.31 6
9 -11 -3 281.364 355.691 3
11 9 -3 406.208 297.884 6
11 -9 -3 318.729 291.705 6
9 -11 -3 280.321 259.135 6
-9 -11 3 23.7376 278.303 1
-11 9 3 343.78 291.431 10
-11 -9 3 672.893 612.46 1
-9 -11 -3 821.405 531.668 9
-11 -9 -3 890.009 522.989 9
-9 -11 3 859.108 498.151 9
-11 -9 3 136.539 299.518 9
-11 9 -3 888.048 570.933 7
-9 11 -3 492.11 468.165 7
11 -9 -4 863.259 571.066 3
9 11 -4 1298.57 415.818 6
11 9 4 174.342 225.195 6
9 -11 -4 -616.469 518.144 3
11 9 -4 567.026 331.907 6
11 -9 -4 800.692 360.535 6
9 -11 -4 500.105 286.19 6
-11 9 4 295.992 315.003 10
-9 -11 4 162.367 357.882 1
-9 -11 -4 -201.847 467.331 9
-11 -9 4 514.806 427.55 1
-11 -9 -4 1245.13 702.393 9
-9 -11 4 148.557 353.791 9
-11 -9 4 220.239 371.141 9
9 11 -4 595.797 513.388 3
11 9 -4 287.021 318.726 3
-11 9 -4 370.195 459.945 7
-9 11 -4 423.983 570.476 7
11 -9 -5 1056.28 599.756 3
11 9 5 580.715 251.805 6
9 11 -5 597.475 281.801 6
9 -11 -5 736.663 387.388 3
11 9 -5 730.084 370.352 6
11 9 -5 1247.77 485.82 3
-11 -9 -5 1473.99 597.154 9
11 -9 -5 1194.7 417.944 6
9 -11 -5 852.701 377.088 6
-9 -11 -5 76.3437 404.724 9
9 11 -5 -196.295 333.562 3
-11 -9 5 887.988 542.838 1
-11 9 -5 1949.72 910.301 7
-9 11 -5 774.435 565.508 7
11 -9 -6 1562.37 483.401 6
9 -11 -6 1296.31 412.767 6
-11 9 -6 935.207 324.435 10
11 -9 -7 670.695 284.437 6
9 -11 -7 704.47 295.374 6
-11 9 7 1205.08 395.191 4
11 -9 7 1103.11 407.368 5
9 -11 7 1131.82 357.929 5
11 -9 -8 -70.6009 250.975 6
9 -11 -8 -595.377 315.978 6
-11 9 8 -70.2693 219.943 4
-9 11 8 -7.83085 224.088 4
11 -9 8 -148.405 372.013 5
9 -11 8 320.243 252.807 5
-9 -11 8 138.902 224.18 5
-11 9 9 842.764 323.237 4
-9 11 9 402.29 304.421 4
11 -9 9 377.688 270.345 5
9 -11 9 268.694 254.745 5
-9 -11 9 1169.06 422.085 5
-11 9 10 168.871 251.98 4
-9 11 10 796.021 347.628 4
11 -9 10 121.506 200.77 5
9 -11 10 -287.691 253.087 5
-9 -11 10 -600.633 309.66 5
-11 9 11 219.605 230.006 4
-9 11 11 12.5781 215.455 4
11 -9 11 221.832 268.052 5
9 -11 11 425.752 270.144 5
-11 9 12 189.683 215.532 4
-9 11 12 58.0114 173.388 4
11 -9 12 187.804 193.439 5
9 -11 12 215.14 262.128 5
-11 9 13 241.767 148.116 4
-9 11 13 211.25 163.882 4
11 -9 13 557.36 219.107 5
9 -11 13 -19.0389 133.171 5
10 11 0 -161.123 262.504 6
11 10 0 -65.597 223.38 6
11 -10 0 -225.377 444.574 3
10 -11 0 -140.266 408.556 3
11 -10 0 66.1381 241.136 6
10 -11 0 -283.308 336.079 6
-10 -11 0 354.85 347.383 9
-11 -10 0 -277.548 534.059 9
10 11 1 2050.32 463.225 6
10 11 -1 2460.79 526.926 6
11 10 1 1739.13 457.623 6
11 10 -1 2609.55 575.935 6
11 -10 -1 1982.5 635.674 3
10 -11 -1 1771.83 632.223 3
11 -10 1 1547.63 410.953 6
11 -10 -1 1512.82 411.29 6
10 -11 1 1866.38 461.089 6
10 -11 -1 1617.12 464.813 6
-10 -11 -1 1246.54 551.735 9
-11 -10 -1 1557.33 618.618 9
-10 -11 1 1262.54 630.018 9
-11 -10 1 1601.6 582.467 9
-11 10 -1 1600.54 723.008 7
-10 11 -1 1299.59 568.681 7
10 11 2 2636.46 544.284 6
10 11 -2 2951.97 582.9 6
11 10 2 2985.87 571.299 6
11 -10 -2 2801.75 826.359 3
11 10 -2 3502.84 638.85 6
10 -11 -2 4018.42 1000.85 3
-10 -11 2 3445.3 882.277 9
11 -10 2 2930.11 519.405 6
10 -11 2 3229.25 539.643 6
11 -10 -2 2588.69 529.871 6
10 -11 -2 3039.27 587.329 6
-10 -11 2 4459.25 989.787 1
-11 -10 2 4014.08 909.189 1
-10 -11 -2 2875.1 798.064 9
-11 -10 -2 3042.25 821.894 9
-11 -10 2 3067.46 906.938 9
-11 10 -2 3855.83 996.547 7
-10 11 -2 3708.83 982.556 7
10 11 3 1103.48 379.423 6
11 -10 -3 1413.92 634.81 3
11 10 3 1141.44 367.937 6
10 11 -3 1434.43 434.18 6
10 -11 -3 1806.58 654.464 3
11 10 -3 1543.19 428.417 6
-11 -10 3 324.803 469.86 9
11 -10 -3 731.082 332.54 6
10 -11 -3 860.977 350.022 6
-10 -11 3 1702.65 681.108 1
-11 -10 3 878.8 485.651 1
-10 -11 -3 1077.99 493.336 9
-11 -10 -3 2404.12 730.386 9
-10 -11 3 1579.4 579.614 9
-11 10 -3 137.589 338.001 7
-10 11 -3 1417.77 601.943 7
11 -10 -4 -381.092 438.641 3
11 10 4 -23.8395 197.654 6
10 11 -4 -297.718 337.926 6
10 -11 -4 -216.541 469.555 3
11 10 -4 -117.922 240.448 6
-11 10 4 117.088 223.438 10
11 -10 -4 -100.543 327.535 6
10 -11 -4 -334.126 299.733 6
-10 -11 4 -173.482 361.479 1
-10 -11 -4 -1938.26 667.462 9
-11 -10 4 -476.782 509.405 1
-11 -10 -4 -501.41 314.003 9
-10 -11 4 -495.612 414.704 9
-11 -10 4 -475.427 492.61 9
-11 10 -4 738.744 599.593 7
-10 11 -4 -14.8888 400.031 7
10 11 -5 5.23137 193.362 6
11 10 -5 460.148 323.331 6
11 -10 -5 349.335 254.659 6
10 -11 -5 -309.013 342.281 6
-11 -10 5 821.445 529.011 1
11 -10 -6 -240.184 256.386 6
10 -11 -6 166.418 226.653 6
11 -10 -7 -67.5403 227.987 6
10 -11 -7 -30.7425 283.414 6
-11 10 7 245.637 332.158 4
-10 11 7 -182.69 250.511 4
10 -11 7 -304.206 412.9 5
11 -10 -8 426.525 283.615 6
10 -11 -8 463.129 238.89 6
-11 10 8 539.839 311.301 4
-10 11 8 497.595 312.279 4
11 -10 8 380.839 310.997 5
10 -11 8 310.117 212.75 5
-11 -10 8 256.076 299.543 5
-10 -11 8 494.925 275.313 5
-11 10 9 362.596 226.177 4
-10 11 9 316.45 261.455 4
11 -10 9 62.8499 223.741 5
10 -11 9 117.218 256.403 5
-10 -11 9 909.1 364.833 5
-11 10 10 196.363 239.42 4
-10 11 10 41.1294 242.663 4
11 -10 10 -11.606 198.767 5
10 -11 10 243.516 277.004 5
-11 10 11 39.6581 217.199 4
-10 11 11 113.492 179.56 4
11 -10 11 -234.668 180.413 5
10 -11 11 -89.2565 256.72 5
-11 10 12 -45.2044 152.689 4
-10 11 12 -62.595 137.585 4
11 -10 12 -16.468 180.757 5
10 -11 12 155.785 158.617 5
11 11 0 16189.7 1321.06 6
11 -11 0 13764.6 1205.51 6
-11 -11 0 14587.8 1757.35 9
11 -11 0 14166.9 1817.59 3
11 11 1 6778.45 858.916 6
11 11 -1 7186.73 893.756 6
11 -11 1 5427.25 773.994 6
11 -11 -1 5287.71 767.91 6
11 -11 -1 4746.87 1074.71 3
-11 -11 1 5921.35 1187.21 1
-11 -11 -1 6693.29 1203.96 9
-11 -11 1 6042.17 1103.13 9
-11 11 -1 4258.6 995.208 7
11 11 2 3154 605.744 6
11 11 -2 3341.81 655.121 6
11 -11 -2 2513.89 779.853 3
-11 -11 2 2403.45 761.973 1
11 -11 2 2868.98 567.796 6
11 -11 -2 3246.49 635.34 6
-11 -11 -2 4260.8 964.998 9
-11 -11 2 3422.38 904.418 9
-11 11 -2 1641.35 756.44 7
11 11 3 1410.24 414.045 6
11 11 -3 1220.6 447.927 6
11 -11 -3 2814.02 847.459 3
11 -11 -3 1379.58 424.225 6
-11 -11 3 1534.95 623.034 1
-11 -11 -3 1341.9 587.993 9
-11 -11 3 2173.43 740.498 9
-11 11 -3 1902 692.282 7
11 11 4 205.524 214.934 6
11 -11 -4 -50.4291 255.987 6
-11 11 4 98.3918 271.613 10
11 11 -5 595.531 310.912 6
11 -11 -5 -154.81 338.429 6
11 -11 -6 1324.81 431.157 6
11 -11 -7 -122.644 302.775 6
-11 11 7 356.663 271.409 4
11 -11 -8 214.545 268.493 6
-11 11 8 -265.058 279.007 4
11 -11 8 358.492 237.058 5
-11 -11 8 -9.62487 248.814 5
-11 11 9 339.11 269.825 4
11 -11 9 442.129 337.676 5
-11 -11 9 601.269 335.221 5
-11 11 10 193.26 209.607 4
11 -11 10 -15.6706 227.365 5
-11 11 11 810.593 280.738 4
11 -11 11 299.802 182.02 5
-11 11 12 69.707 132.236 4
11 -11 12 -59.105 117.273 5
12 0 0 30546.5 2203.12 2
0 -12 0 28118.6 1940.98 9
12 0 0 28379.3 1868.78 3
-12 0 0 28431.3 1863.9 1
0 12 0 27492.4 2034.02 7
12 0 1 87693.1 3752.48 2
0 -12 -1 83818 3467.5 9
0 -12 1 76876.3 3141.33 9
12 0 -1 78153.4 3222.18 3
0 12 1 75002.8 3479.13 8
-12 0 -1 69448.9 2867.62 1
-12 0 1 77317.9 3229.2 1
0 12 -1 75412 3375.14 7
0 12 1 75594.3 3349.32 7
12 0 2 47034 2733 2
0 -12 -2 46244.2 2668.59 9
12 0 -2 40687 2458.54 3
0 -12 2 41918.5 2223.84 9
-12 0 -2 38505.9 2154.24 1
0 12 2 39441.1 2561.89 8
-12 0 2 42487.2 2452.26 1
0 12 -2 41017.4 2537.79 7
0 12 2 39412.1 2458.87 7
0 12 3 2768.24 707.301 7
12 0 3 2392.48 697.092 2
0 -12 -3 3970.71 823.683 9
0 12 3 3191.29 750.106 8
-12 0 3 2957.44 698.468 1
12 0 -3 2991.28 755.665 3
0 12 -3 3070.14 709.683 7
0 12 4 2922.4 743.145 7
12 0 -4 3579.82 602.935 6
0 -12 -4 4132.8 910.256 9
12 0 4 3363.1 871.537 2
0 12 4 3312.47 777.983 8
12 0 -4 3764.8 897.343 3
-12 0 4 3360.83 771.556 1
0 12 -4 3971.37 935.544 7
12 0 -5 12683.7 1078.21 6
12 0 5 14119.9 1682.87 2
12 0 5 13705.1 1189.59 5
0 -12 -5 16419.7 1765.44 9
0 12 5 14629.3 1799.13 8
12 0 -5 16106.1 1807.76 3
0 12 -5 15635.2 1705.09 7
-12 0 5 15694.1 1746.7 1
12 0 -6 5518.49 717.255 6
-12 0 6 6615.24 1214.63 1
0 -12 6 6586.31 899.789 5
12 0 6 5623.4 829.728 5
0 -12 -6 5425.67 1060.57 9
0 12 6 4925.8 1150.95 8
12 0 -6 6744.53 1317.21 3
0 12 -6 5978.1 1102.07 7
12 0 -7 4049.71 626.448 6
-12 0 7 5680.12 1191.93 1
0 12 7 3600.67 1035.24 8
12 0 7 4639.23 759.262 5
0 -12 7 5630.49 911.132 5
0 -12 -7 3899.08 917.386 9
12 0 -7 5676.33 1205.34 3
0 12 -7 3800.79 907.58 7
0 12 8 861.984 318.516 4
0 -12 8 156.264 329.099 5
-12 0 9 846.571 322.45 4
12 0 9 839.53 408.335 5
0 12 9 370.012 345.153 4
0 -12 9 996.733 487.984 5
-12 0 10 671.614 342.983 4
12 0 10 493.003 336.065 5
0 12 10 256.958 270.117 4
0 -12 10 659.075 376.632 5
-12 0 11 321.12 280.442 4
12 0 11 -167.164 246.587 5
0 -12 11 -127.996 344.044 5
-12 0 12 85.7167 171.752 4
12 0 12 744.421 341.016 5
0 -12 12 886.391 388.42 5
-12 0 13 634.129 264.587 4
0 -12 13 299.783 226.833 5
0 -12 14 337.742 214.521 5
-12 -1 0 83.1728 264.068 1
12 1 0 687.454 522.56 2
12 -1 0 169.428 432.188 2
1 -12 0 189.185 349.729 9
-1 -12 0 -686.195 375.167 9
-12 1 0 -193.37 228.493 1
-12 -1 0 733.636 510.988 9
12 1 0 -477.945 387.623 3
12 -1 0 -2.15306 272.582 3
-1 12 0 822.693 500.615 7
1 12 0 391.043 474.586 7
1 12 1 2241.4 669.118 7
12 -1 1 1900.46 523.132 3
12 -1 1 2880.74 729.954 2
12 1 1 2351.41 699.824 2
-12 -1 -1 2022.85 531.315 1
-12 1 -1 1466.47 416.364 1
-12 -1 1 1657.07 558.039 1
1 -12 -1 1736.37 563.253 9
1 -12 1 1821.48 545.916 9
-1 -12 -1 2188.02 613.658 9
-1 -12 1 2180.26 587.47 9
-12 1 1 1326.15 442.786 1
-12 -1 -1 2776.01 742.407 9
-1 12 1 2287.36 783.275 8
1 12 1 2029.11 669.342 8
12 1 -1 2200.6 588.467 3
12 -1 -1 1695.91 540.555 3
-1 12 -1 2736.41 723.782 7
1 12 -1 1966.41 534.16 7
-1 12 1 2723.47 674.885 7
-1 12 2 1452.73 537.247 7
1 12 2 693.987 414.558 7
-12 1 -2 848.475 356.067 1
1 -12 2 448.32 241.048 9
12 -1 2 1342.78 503.768 2
12 1 2 1250.75 466.03 2
1 -12 -2 974.541 424.201 9
-1 -12 -2 1665.78 545.02 9
-1 -12 2 1585.74 485.599 9
-12 -1 2 713.099 297.347 1
-12 -1 -2 1066.4 465.541 9
-1 12 2 473.232 486.554 8
1 12 2 899.898 481.574 8
-12 1 2 577.461 283.865 1
12 1 -2 1018.75 432.943 3
12 -1 -2 866.333 385.407 3
-1 12 -2 1141.35 548.475 7
1 12 -2 1633.23 594.683 7
-1 12 3 152.238 358.879 7
1 12 3 797.947 438.142 7
12 -1 3 109.331 452.879 2
1 12 3 464.083 475.992 8
12 1 3 -24.1574 408.451 2
1 -12 -3 585.589 349.967 9
-1 -12 -3 634.735 406.408 9
-12 -1 -3 60.0952 367.751 9
-12 -1 3 -157.882 355.28 1
-1 12 3 689.273 364.682 8
-12 1 3 225.743 353.492 1
12 1 -3 344.868 344.272 3
12 -1 -3 637.822 440.421 3
-1 12 -3 455.11 475.498 7
1 12 -3 266.078 332.501 7
-1 12 4 810.764 385.119 7
12 1 -4 1227.26 355.455 6
1 -12 -4 1900.69 699.94 9
12 -1 -4 1390.32 374.513 6
12 -1 4 1482.58 525.132 2
12 1 4 1751.03 560.668 2
-1 -12 -4 1509.21 558.645 9
-12 -1 -4 1707.47 495.318 9
-1 12 4 339.781 415.623 8
1 12 4 1181.77 514.615 8
-12 -1 4 1736.23 608.323 1
12 1 -4 1598.56 579.151 3
12 -1 -4 957.036 507.639 3
-12 1 4 1513.92 571.991 1
-1 12 -4 1318.01 467.778 7
1 12 -4 826.91 344.74 7
-12 1 5 218.525 318.832 1
12 -1 5 130.616 188.258 5
12 1 -5 -274.842 233.152 6
12 -1 -5 517.452 312.99 6
12 1 5 558.008 348.502 5
1 -12 -5 704.794 473.462 9
-1 -12 -5 -280.088 395.91 9
12 -1 5 114.683 399.778 2
12 1 5 -44.5458 397.998 2
-1 12 5 -578.379 525.019 8
1 12 5 644.334 499.578 8
12 1 -5 239.701 416.735 3
12 -1 -5 393.249 594.525 3
-12 -1 5 1447.75 550.398 1
-1 12 -5 271.458 430.098 7
1 12 -5 -96.5739 299.884 7
-12 -1 6 2099.77 714.353 1
-12 1 6 3118.69 841.485 1
12 -1 6 1950.99 503.754 5
12 1 -6 1453.29 382.073 6
12 -1 -6 1374.11 400.831 6
1 -12 -6 1491.99 568.718 9
12 1 6 1722.36 479.502 5
-1 -12 -6 1454.01 546.143 9
-1 12 6 1449.85 695.726 8
1 12 6 1529.25 657.21 8
1 -12 6 1804.78 531.099 5
12 1 -6 2662.44 879.871 3
12 -1 -6 2467.84 858.835 3
-1 12 -6 1543.24 644.982 7
1 12 -6 2272.69 693.927 7
12 -1 7 295.632 240.939 5
12 1 7 364.175 341.431 5
-12 -1 7 588.103 544.658 1
12 -1 -7 -62.1072 172.09 6
-12 1 7 91.7599 388.345 1
1 -12 -7 324.803 442.179 9
-1 -12 -7 1052.19 506.987 9
-1 12 7 75.9936 406.313 8
1 12 7 -332.96 497.941 8
1 -12 7 505.083 360.129 5
-1 -12 7 -42.8125 341.979 5
12 1 -7 665.292 605.959 3
12 -1 -7 527.327 473.508 3
-1 12 -7 83.2258 418.098 7
1 12 -7 495.967 362.396 7
12 1 8 672.543 360.755 5
-12 1 8 -74.6916 208.669 4
-1 12 8 -238.13 298.476 4
12 -1 8 233.531 254.503 5
1 -12 8 41.659 255.551 5
-1 -12 8 412.288 381.845 5
-12 -1 9 1143.69 384.864 4
-12 1 9 722.552 354.869 4
-1 12 9 720.86 308.593 4
12 1 9 1259.29 417.655 5
12 -1 9 641.671 339.81 5
1 -12 9 769.633 400.38 5
-1 -12 9 841.443 387.984 5
12 -1 10 654.253 340.077 5
-12 -1 10 642.87 298.332 4
-12 1 10 688.572 339.535 4
-1 12 10 980.632 340.799 4
1 -12 10 249.938 264.769 5
-1 -12 10 991.023 382.586 5
12 1 10 -177.596 258.692 5
-12 -1 11 571.955 271.281 4
12 1 11 432.279 349.012 5
-12 1 11 -71.5123 245.812 4
-1 12 11 74.3032 219.823 4
12 -1 11 232.548 235.828 5
1 -12 11 395.405 338.438 5
-1 -12 11 289.103 311.817 5
-12 -1 12 -270.059 227.354 4
12 -1 12 -24.6501 212.515 5
-12 1 12 136.34 176.39 4
1 -12 12 31.5371 269.002 5
-1 -12 12 163.076 272.146 5
-12 -1 13 -142.989 187.357 4
-12 1 13 123.235 159.294 4
1 -12 13 119.152 227.756 5
-1 -12 13 -149.683 195.474 5
1 -12 14 103.145 176.934 5
-1 -12 14 181.211 181.671 5
12 2 0 95319.2 3893.53 2
12 -2 0 101180 4047.23 2
2 -12 0 91566.7 3524.88 9
-2 -12 0 93205.6 3630.64 9
-12 -2 0 93629.9 3685.73 9
12 -2 0 89166 3505.8 3
-12 -2 0 87132.4 3358.02 1
-12 2 0 85889.2 3212.76 1
-2 12 0 85555.7 3598.19 7
2 12 0 83994 3537.8 7
12 -2 1 51113.1 2881.43 2
12 2 1 52191.4 2886.58 2
2 -12 -1 54040.7 2791.03 9
12 2 -1 48198.4 2473.49 3
2 -12 1 50622.1 2506.79 9
-2 -12 -1 53734.5 2858.25 9
-2 -12 1 51374.8 2618.95 9
12 -2 -1 51121.9 2707.84 3
-12 -2 -1 50131.1 2684.99 9
-12 -2 1 53461.9 2806.64 9
12 -2 1 52762.5 2628.32 3
-2 12 1 51199.6 2864.28 8
2 12 1 46848.5 2748.4 8
-12 -2 1 44981.2 2515.02 1
-12 2 -1 51948.4 2410.56 1
-12 2 1 50440.1 2525.29 1
-2 12 -1 49534.3 2770.74 7
-2 12 1 48728.7 2689.74 7
2 12 -1 49482.9 2707.17 7
2 12 1 49977.8 2741.37 7
12 -2 2 24860.9 2042.55 2
12 2 2 25519.4 2038.16 2
12 2 -2 23057.7 1837.71 3
2 -12 -2 24279.6 1980.02 9
-2 -12 -2 27036.6 2054.59 9
-2 -12 2 23872.5 1747.41 9
12 -2 -2 25021.2 1972.01 3
-12 -2 -2 25199.6 1940.81 9
-2 12 2 22447.9 1954.31 8
2 12 2 22415.8 1928.04 8
-12 -2 2 26649.1 1998.3 1
-2 12 -2 23569.2 1944.42 7
-12 2 2 22736.1 1799.91 1
2 12 -2 25290.3 1988.88 7
-2 12 2 24455.4 1895.11 7
2 12 2 24011.5 1954.04 7
12 -2 3 7634.68 1162.03 2
12 2 3 7104.31 1135.64 2
12 2 -3 7462.32 1093.26 3
2 -12 -3 6934.03 1115.15 9
-2 -12 -3 7032.22 1097.03 9
12 -2 -3 6838.53 1113.69 3
-12 -2 -3 7377.69 1055.06 9
2 12 3 7753.61 1189.15 8
-2 12 3 6621.65 1107.23 8
-12 -2 3 7766.62 1135.66 1
-2 12 -3 7652.94 1170.36 7
2 12 -3 8335.61 1198.23 7
-2 12 3 6969.1 1013.65 7
2 12 3 6636.65 1061.55 7
-12 2 3 6807.72 1016.91 1
12 2 -4 402.649 216.381 6
-2 -12 -4 800.644 412.601 9
12 -2 -4 191.579 231.727 6
12 -2 4 471.931 425.807 2
12 2 4 857.864 575.074 2
2 -12 -4 -82.6715 294.863 9
-12 -2 -4 950.859 440.618 9
-2 12 4 445.652 480.926 8
2 12 4 -42.0271 335.823 8
-12 -2 4 894.173 485.73 1
12 2 -4 352.118 374.488 3
12 -2 -4 -56.718 353.109 3
-2 12 -4 467.801 313.915 7
2 12 -4 -83.553 338.336 7
12 2 5 4331.05 717.092 5
-12 2 5 4488.62 943.67 1
12 2 -5 3850.08 631.971 6
12 -2 -5 3526.69 594.966 6
12 2 5 5246.36 1017.29 2
12 -2 5 3716.22 639.976 5
2 -12 -5 3762.65 875.087 9
-2 -12 -5 4747.58 998.379 9
12 -2 5 3064.78 751.42 2
-2 12 5 3987.15 1065.59 8
2 12 5 3566.78 1002.41 8
12 2 -5 3323.8 837.678 3
2 -12 5 3836.32 664.432 5
-12 -2 5 3872.66 943.534 1
12 -2 -5 3737.31 932.545 3
-2 12 -5 3879.93 943.867 7
2 12 -5 3462.25 874.809 7
12 2 -6 7464.74 834.66 6
12 -2 -6 7660.27 860.591 6
12 2 -6 9252.65 1486.22 3
-12 2 6 8044.48 1310.26 1
12 2 6 8425.51 999.596 5
12 -2 6 7420.65 917.25 5
2 -12 6 8258.37 1031.12 5
2 -12 -6 8210.17 1315.47 9
12 -2 -6 8189.26 1361.82 3
-2 -12 -6 9074.82 1364.18 9
2 12 6 7178.34 1408.87 8
-2 12 6 7057.86 1306 8
-2 12 -6 7937.38 1287.59 7
2 12 -6 8212.79 1266.12 7
-12 -2 6 9522.67 1453.9 1
-2 -12 7 4844.71 886.56 5
-12 -2 7 3497.62 947.375 1
12 -2 -7 2463.03 508.415 6
-12 2 7 3036.59 536.486 4
12 2 7 3075.57 643.409 5
-12 2 7 3017.64 838.916 1
12 -2 7 3951.15 676.452 5
2 -12 -7 3137.36 822.73 9
-2 -12 -7 3718.05 918.975 9
-2 12 7 3803.25 944.893 8
2 12 7 1948.97 762.77 8
2 -12 7 3492.66 699.306 5
12 2 -7 4160.1 1102.13 3
-12 2 -7 2432.8 814.188 7
12 -2 -7 3675.99 971.66 3
-2 12 -7 2306.42 793.288 7
2 12 -7 2559.12 688.495 7
-12 2 8 2584.38 520.433 4
12 2 8 2294.97 560.452 5
-2 12 8 2176.83 492.779 4
12 -2 8 2650.84 580.228 5
2 -12 8 2358.4 644.438 5
-2 -12 8 1809.95 548.254 5
2 -12 9 1022.32 461.916 5
-12 2 9 1219.46 377.851 4
-2 12 9 931.579 360.913 4
12 2 9 994.026 456.153 5
12 -2 9 851.3 404.813 5
-2 -12 9 1222.04 448.946 5
-12 -2 10 -229.096 219.86 4
12 2 10 234.76 340.436 5
12 -2 10 160.016 309.326 5
-12 2 10 -99.2209 244.201 4
-2 12 10 -170.85 199.31 4
2 -12 10 -350.632 369.737 5
-2 -12 10 238.36 346.58 5
12 -2 11 -72.3392 211.337 5
-12 2 11 934.405 339.887 4
-12 -2 11 -28.036 205.637 4
-2 12 11 327.037 272.264 4
2 -12 11 277.291 268.494 5
-2 -12 11 4.72637 232.82 5
-12 -2 12 216.546 190.612 4
-12 2 12 85.8558 190.556 4
12 -2 12 356.37 323.797 5
-2 12 12 -130.035 232.5 4
2 -12 12 1100.37 388.292 5
-2 -12 12 826.178 394.282 5
-12 2 13 336.792 206.789 4
12 -2 13 512.3 303.746 5
-2 -12 13 663.429 277.354 5
2 -12 13 410.301 256.056 5
-12 -2 13 225.519 167.243 4
2 -12 14 101.359 163.69 5
3 12 0 364.373 348.768 7
12 -3 0 1134.77 557.352 3
-3 12 0 404.732 393.964 7
12 3 0 890.952 536.939 2
12 -3 0 260.016 439.887 2
-12 -3 0 -261.801 275.905 1
3 -12 0 345.574 312.559 9
-3 -12 0 281.693 410.291 9
-12 -3 0 379.252 400.12 9
-12 3 0 -189.543 210.87 1
3 12 -1 536.451 387.248 7
3 12 1 723.28 468.876 7
12 -3 1 159.531 297.004 3
3 12 1 739.716 441.569 8
-12 -3 1 -136.444 311.444 1
-3 -12 -1 154.292 339.509 9
12 -3 1 269.756 330.045 2
12 3 1 142.028 316.917 2
3 -12 -1 -8.44094 283.13 9
3 -12 1 329.687 382.119 9
-3 -12 1 234.934 412.462 9
-12 -3 -1 -104.376 277.303 9
-12 -3 1 -12.2386 305.01 9
-3 12 1 976.85 474.894 8
-12 3 1 1108.22 471.054 1
12 3 -1 614.991 415.444 3
-12 3 1 197.444 216.301 7
-3 12 -1 114.256 294.471 7
-3 12 1 297.719 419.162 7
12 -3 -1 41.1731 291.292 3
3 12 -2 1041.69 438.936 7
12 -3 -2 1687.53 619.042 3
3 12 2 824.481 555.27 7
12 -3 2 924.675 422.507 3
12 3 2 1381.87 462.934 2
3 12 2 951.574 492.097 8
-12 -3 2 817.896 351.56 9
12 -3 2 1025.53 508.284 2
-12 -3 2 952.827 450.258 1
3 -12 -2 1446.07 600.531 9
-3 -12 -2 1622.64 641.866 9
-3 -12 2 1522 492.524 9
-12 -3 -2 1040.4 441.641 9
-3 12 2 1535.89 609.567 8
12 3 -2 795.335 386.924 3
-12 3 2 1652.25 523.551 1
-3 12 -2 516.536 350.198 7
-3 12 2 525.989 329.142 7
12 3 -3 6666.04 794.068 6
12 -3 -3 6798.22 759.117 6
12 3 -3 7696.3 1135.65 3
12 -3 3 8846.51 1259.18 2
12 3 3 7829.37 1198.77 2
3 -12 -3 8769.46 1244.95 9
-3 -12 -3 7726.71 1167.55 9
12 -3 -3 7360.59 1150.82 3
-12 -3 -3 7232.41 1081.29 9
-3 12 3 6687.78 1140.52 8
3 12 3 6183.98 1087.13 8
-12 -3 3 7453.1 1139.28 1
3 12 -3 6366.74 1053.24 7
-3 12 3 6317.98 994.603 7
-12 3 3 7888.03 1133.13 1
-3 12 -3 5893.89 1011.43 7
12 3 -4 12282.4 1067.04 6
12 -3 -4 12734.5 1047.73 6
3 -12 4 9265.07 991.889 5
-12 3 -4 9455.39 945.086 10
12 -3 4 12396.1 1563.79 2
12 3 4 12769.6 1547.65 2
-12 3 4 9875.59 1007.49 10
12 3 -4 13144.3 1562.91 3
3 -12 -4 13237.5 1622.6 9
-3 -12 -4 14131.3 1597.87 9
12 -3 -4 11349.5 1478.52 3
-12 -3 -4 11599.2 1363.01 9
3 -12 -4 11893.1 1381.33 3
-3 12 4 11465.4 1463.22 8
3 12 4 12090.9 1527.82 8
-12 -3 4 13065.7 1561.93 1
-3 12 -4 13775.8 1599 7
3 12 -4 11452.9 1429.71 7
-12 3 4 12479.1 1461.61 1
12 3 -5 5885.64 762.607 6
12 -3 -5 6692.45 790.486 6
-12 3 5 6234.24 1145.21 1
12 -3 5 4967.83 701.658 5
3 -12 5 5559.57 803.822 5
-12 3 -5 5001.87 694.878 10
3 -12 -5 6951.19 1204.66 9
-3 -12 -5 6242.34 1113.11 9
12 3 5 7407.19 1220.58 2
-3 12 5 4117.86 991.355 8
3 12 5 5483.4 1151.3 8
12 3 -5 7076.91 1242.66 3
-12 -3 5 5717.09 1111.67 1
12 -3 5 6174.39 1149.25 2
12 -3 -5 6339.61 1187.28 3
-3 12 -5 6435.5 1168.88 7
3 12 -5 5920.86 1043.11 7
12 3 6 560.355 333.181 5
12 3 -6 592.145 257.725 6
12 -3 -6 205.855 230.094 6
-12 3 6 511.602 264.128 4
-12 3 6 21.6512 375.303 1
12 -3 6 673.479 351.638 5
3 -12 -6 1301.76 630.066 9
-3 -12 -6 377.323 488.81 9
-3 12 6 278.635 497.325 8
3 12 6 647.142 583.101 8
3 -12 6 179.157 226.744 5
12 3 -6 809.117 483.565 3
-12 3 -6 806.149 486.91 7
12 -3 -6 1167.24 642.355 3
-12 -3 6 491.699 465.093 1
-3 12 -6 830.886 389.794 7
3 12 -6 -453.184 504.894 7
3 12 -7 269.969 282.317 7
-12 -3 7 -5.69525 415.972 1
-12 3 7 705.069 533.763 1
12 -3 -7 90.5009 174.142 6
-12 3 7 224.536 216.396 4
12 3 7 50.2874 261.44 5
3 -12 -7 -59.7834 199.846 6
12 -3 7 316.796 267.919 5
3 -12 -7 -57.6994 306.803 9
-3 -12 -7 -986.808 517.441 9
3 -12 7 -621.545 356.812 5
-3 12 7 -69.7575 653.539 8
3 12 7 119.712 315.539 8
12 3 -7 -279.998 426.725 3
-12 3 -7 -56.6011 425.548 7
12 -3 -7 -744.664 496.202 3
-3 12 -7 103.019 374.576 7
12 3 8 -284.657 286.113 5
-12 3 8 -64.8837 227.07 4
-3 12 8 408.259 241.833 4
3 -12 -8 -204.365 253.805 6
12 -3 8 -151.517 214.538 5
3 -12 8 -293.403 301.372 5
-3 -12 8 -297.106 337.813 5
-12 3 9 816.519 345.047 4
-3 12 9 934.451 364.761 4
12 -3 9 113.814 239.236 5
3 -12 9 270.528 315.205 5
-3 -12 9 1024.04 489.432 5
-12 3 10 1585.62 445.144 4
-3 12 10 1752.7 452.322 4
12 -3 10 1482.59 521.616 5
3 -12 10 1667.06 499.233 5
-3 -12 10 1675.49 542.486 5
-12 -3 11 1578.29 392.66 4
12 -3 11 1348.89 495.288 5
-12 3 11 1962.77 427.791 4
-3 12 11 1331.83 378.046 4
3 -12 11 1401.25 458.242 5
-3 -12 11 1660.59 456.328 5
-12 -3 12 286.716 177.039 4
-12 3 12 7.43122 208.256 4
12 -3 12 1185.71 384.485 5
-3 12 12 695.985 303.776 4
3 -12 12 1064.44 393.882 5
-3 -12 12 180.097 250.876 5
-12 3 13 -64.822 192.77 4
-3 12 13 355.164 182.508 4
3 -12 13 265.652 265.195 5
12 -3 13 -156.658 253.412 5
-3 -12 13 -124.884 194.404 5
3 -12 14 -66.7963 158.705 5
12 4 0 23532.5 1982.79 2
12 -4 0 25029.8 2071.58 2
4 -12 0 26655.8 1913 9
-4 -12 0 25500.9 1957.17 9
-12 -4 0 26317.3 1983.98 9
12 -4 0 25345.4 1992.64 3
-12 4 0 25637.4 2002.6 7
-4 12 0 24588.2 1949.1 7
4 12 0 22675.3 1897.31 7
12 4 -1 20932.3 1846.27 2
12 -4 -1 20520.5 1858.84 2
12 -4 1 20184.9 1834.79 2
12 4 1 20123.9 1814.12 2
4 -12 -1 22381.5 1846.47 9
4 -12 1 20137.7 1591.85 9
-4 -12 -1 22597.5 1869.6 9
-4 -12 1 22625.9 1817.4 9
-12 -4 -1 20967.7 1797.02 9
-12 -4 1 20074.1 1784.14 9
12 -4 -1 20392.6 1807.39 3
12 -4 1 19882.5 1722.88 3
-4 12 1 20020.7 1865.06 8
4 12 1 16172.6 1679.75 8
-12 -4 1 19120.2 1714.37 1
-12 4 -1 22822.2 2002.8 7
-4 12 -1 20901.5 1817.22 7
-4 12 1 20202 1766.4 7
4 12 -1 19864.3 1789.63 7
4 12 1 21622 1880.17 7
-12 4 1 21321.8 1652.46 1
12 -4 -2 11230.4 979.762 6
12 4 -2 11133.2 1239.53 3
12 -4 2 11721.5 1440.65 2
12 4 2 10984.5 1369.13 2
4 -12 -2 12855.7 1449.8 9
-4 -12 -2 12146.3 1403.63 9
-4 -12 2 12313.1 1375.88 9
-12 -4 -2 10335.8 1297.27 9
12 -4 -2 9497.92 1258.25 3
-12 -4 2 11613.8 1404.14 9
12 -4 2 11246.7 1289.14 3
-4 12 2 8043.34 1239.23 8
4 12 2 8017.7 1233.17 8
-12 -4 2 11364.4 1382.72 1
-12 4 -2 11097.9 1476.8 7
-4 12 -2 12014.9 1449.81 7
-4 12 2 9439.45 1182.29 7
4 12 -2 10601 1309.77 7
4 12 2 11290.1 1425.82 7
-12 4 2 12609 1351.38 1
4 12 -3 2698.32 722.21 7
-4 -12 3 1920.19 603.281 9
-12 4 -3 2473.83 537.27 10
-12 4 3 3287.5 783.035 1
4 -12 -3 2406.35 637.192 3
-12 4 3 1844.6 475.005 10
12 4 -3 3341.21 591.402 6
4 -12 -3 3866.77 839.362 9
12 -4 -3 2378.47 445.256 6
12 -4 3 2644.91 731.367 2
12 4 3 3174.48 736.856 2
-4 -12 -3 3693.92 1153.26 9
-12 -4 3 4096.4 868.757 1
-12 -4 -3 2937.88 757.386 9
-4 12 3 2327.45 713.144 8
4 12 3 2062.38 705.154 8
12 4 -3 3518.09 804.613 3
-12 4 -3 3766.01 927.268 7
-4 12 -3 2398.42 763.22 7
12 -4 -3 2346.14 683.16 3
4 12 -4 1389.04 541.232 7
4 -12 -4 893.881 446.128 3
12 4 -4 1209.03 394.932 6
-12 4 4 1441.5 594.683 1
12 -4 -4 928.283 337.003 6
-12 4 4 1175.95 383.91 10
-12 4 -4 545.921 274.219 10
4 -12 -4 1695.15 644.705 9
12 -4 4 350.272 313.244 2
12 4 4 424.409 434.75 2
-4 -12 -4 1078.39 494.844 9
-12 -4 -4 252.53 275.551 9
-12 -4 4 1217.43 595.41 1
-4 12 4 2268.73 688.103 8
4 12 4 1644.12 769.756 8
12 4 -4 1273.48 580.624 3
4 -12 4 925.342 318.496 5
-12 4 -4 -3.58597 522.533 7
12 -4 -4 1086.53 477.18 3
-4 12 -4 977.786 532.113 7
4 12 -5 -353.713 399.896 7
4 -12 -5 306.859 308.23 3
-12 4 -5 43.9098 236.719 10
12 4 -5 317.187 267.653 6
12 -4 -5 71.2783 176.179 6
-12 4 5 169.312 428.749 1
12 -4 5 -91.2824 204.625 5
4 -12 -5 218.179 316.107 9
-4 -12 -5 -247.063 514.879 9
-12 -4 -5 400.96 316.32 9
12 -4 5 -144.061 295.23 2
12 4 5 1020.51 542.188 2
-4 12 5 138.816 381.741 8
4 12 5 149.155 357.43 8
4 -12 5 305.022 311.852 5
12 4 -5 -39.9192 324.336 3
-12 -4 5 -669.66 449.153 1
-12 4 -5 675.218 418.385 7
12 -4 -5 -78.6552 382.487 3
-4 12 -5 -147.047 483.945 7
4 12 -6 666.168 370.889 7
12 4 -6 1848.31 450.399 6
12 -4 -6 1931.98 494.005 6
-12 4 6 2270.78 486.829 4
-12 4 6 2373.4 698.835 1
12 -4 6 2016.61 493.227 5
4 -12 -6 1745.2 627.163 9
-4 -12 -6 2086.98 707.209 9
-4 12 6 2259.28 827.979 8
4 12 6 1882.32 793.504 8
4 -12 6 2574.96 574.504 5
12 4 -6 2446.16 805.858 3
-12 4 -6 1593.04 576.349 7
-12 -4 6 1851.05 714.894 1
12 -4 -6 2181.8 705.165 3
-4 12 -6 3714.81 965.705 7
-12 -4 7 3695.51 961.655 1
12 -4 -7 2998.78 547.437 6
-12 4 7 3964.54 644.469 4
4 -12 -7 2806.48 558.18 6
12 -4 7 3249.37 630.375 5
-12 4 7 3374.27 827.962 1
4 -12 -7 3265.78 895.794 9
-4 -12 -7 2856.14 802.101 9
4 -12 7 3019.02 628.45 5
-4 12 7 3150.69 957.132 8
4 12 7 2749.78 919.838 8
12 4 -7 2758.77 956.001 3
-12 4 -7 2282.04 853.009 7
12 -4 -7 2671.98 866.497 3
-4 12 -7 1880.51 724.886 7
-12 4 8 1016.73 338.694 4
4 -12 -8 1263.35 393.1 6
-4 12 8 1447.39 470.291 4
12 -4 8 1298.56 443.288 5
4 -12 8 1206.17 445.107 5
-4 -12 8 1618.87 490.137 5
-12 4 9 246.279 264.257 4
-4 12 9 545.56 300.458 4
12 -4 9 -34.2422 250.62 5
4 -12 9 257.151 302.715 5
-4 -12 9 -17.3216 296.33 5
-12 4 10 413.856 266.356 4
-4 12 10 273.8 263.593 4
12 -4 10 -38.1443 286.448 5
4 -12 10 191.16 230.189 5
-4 -12 10 -98.9475 239.089 5
-12 4 11 456.264 278.24 4
-4 12 11 227.119 198.932 4
12 -4 11 275.447 251.685 5
-4 -12 11 486.379 317.206 5
4 -12 11 605.968 386.713 5
-12 4 12 601.076 259.167 4
-4 12 12 562.221 257.48 4
4 -12 12 715.176 358.844 5
-4 -12 12 207.201 245.038 5
12 -4 12 271.187 220.668 5
-12 4 13 688.834 261.54 4
-4 12 13 741.928 224.434 4
12 -4 13 298.221 241.827 5
4 -12 13 767.549 284.088 5
-4 -12 13 716.046 266.967 5
4 -12 14 184.601 163.299 5
5 12 0 -44.9591 265.912 7
12 -5 0 149.723 361.722 3
-12 5 0 355.732 324.145 10
12 5 0 -163.775 249.449 6
12 5 0 118.087 311.548 2
12 -5 0 -231.709 367.931 2
5 12 0 417.359 459.097 8
5 -12 0 -167.963 245.291 9
-5 -12 0 -341.189 384.817 9
-12 -5 0 395.669 413.966 9
-12 5 0 -218.317 475.452 7
-5 12 0 594.386 448.861 7
5 12 -1 2263.21 693.244 7
5 12 1 1207.6 535.137 7
12 -5 -1 2198.09 645.308 3
12 -5 1 2657.52 733.6 3
12 5 1 1870.74 445.232 6
12 5 -1 1950.56 417.812 6
12 -5 -1 1646.38 380.486 6
12 5 -1 2081.53 643.272 2
12 -5 -1 2081.29 594.992 2
-12 -5 1 2591.19 711.182 1
12 -5 1 1723.29 592.548 2
12 5 1 1919.37 641.659 2
-12 5 -1 2308.2 513.142 10
5 -12 -1 2200.68 701.377 9
-5 -12 -1 2599.59 726.126 9
-5 -12 1 2679.1 747.663 9
-12 -5 -1 2184.07 604.381 9
-12 -5 1 2202.37 693.328 9
-12 5 1 1770.29 488.036 10
-5 12 1 2307.87 660.888 8
5 12 1 1353.3 592.59 8
-12 5 -1 1880.29 567.249 7
-5 12 -1 1189.64 480.388 7
-5 12 1 2261.54 635.071 7
12 -5 -2 5235.44 991.777 3
5 12 -2 4424.13 895.641 7
12 5 -2 5749.93 748.237 6
12 -5 -2 4514.84 657.252 6
-12 5 -2 4712.51 704.027 10
12 -5 2 5639.1 959.654 3
12 5 2 4693.2 921.689 2
12 5 -2 5515.31 904.545 3
5 -12 -2 5390.82 960.089 3
-12 5 2 4206.28 792.61 1
-12 -5 2 5834.5 1013.93 1
12 -5 2 4529.41 881.951 2
-5 -12 -2 5256.31 981.24 9
-5 -12 2 5057.3 936.615 9
-12 -5 -2 5639.65 981.958 9
-12 -5 2 4565.22 886.668 9
12 5 2 4960.96 676.209 6
-5 12 2 4235.45 910.367 8
5 12 2 5173.4 931.814 8
-12 5 -2 5684.6 1116.2 7
-5 12 -2 5019.33 1006 7
-5 12 2 4445.39 860.402 7
-12 5 3 15243.1 1577.88 1
12 5 3 13963.2 1101.45 6
12 5 -3 17768.5 1295.02 6
12 -5 -3 16767.5 1227.13 6
-12 5 -3 14632.1 1219.68 10
12 -5 3 16837.5 1720.49 2
12 5 3 16178.8 1669.05 2
12 5 -3 16176 1606.82 3
-12 5 3 13803 1228.43 10
-5 -12 -3 14389.8 1565.21 9
-5 -12 3 14017.9 1453.42 9
-12 -5 -3 15160.8 1629.41 9
12 -5 -3 15638.6 1750.07 3
-12 -5 3 15830.6 1725.51 9
5 -12 -3 16086.8 1685.44 3
-5 12 3 14102.7 1633.67 8
5 12 3 14701.7 1613.95 8
-12 -5 3 17804.9 1771.49 1
-12 5 -3 20919.8 2109.33 7
-5 12 -3 16573.2 1811.57 7
5 12 -3 14600 1608.06 7
12 5 4 15764.8 1206.89 6
-12 5 4 21559.7 1913.01 1
12 5 -4 21546.9 1435.07 6
12 -5 -4 19464.1 1364.69 6
12 5 -4 20395.3 1977.01 3
12 -5 4 19440.5 1920.39 2
12 5 4 19632.7 1939.84 2
-12 5 4 18881.8 1387.29 10
-12 5 -4 16886.7 1296.04 10
-5 -12 -4 20148.3 1916.46 9
12 -5 -4 19947.8 1993.21 3
-12 -5 -4 19715.1 1862.43 9
5 12 -4 18119.2 1830.72 7
5 -12 -4 21216.6 1936.43 3
-5 12 4 19678.6 1999.3 8
5 12 4 18050.6 1921.16 8
-12 -5 4 22768.3 2116.68 1
-12 5 -4 22272.9 2244.78 7
-5 12 -4 20864.4 2080.62 7
12 5 -5 9084.84 957.909 6
12 -5 -5 8876.39 937.382 6
-12 5 5 8588.47 1295.09 1
5 -12 -5 9586.67 990.89 6
12 5 -5 9698.65 1462 3
12 -5 5 9023.19 1354.43 2
12 5 5 8818.69 1357.39 2
5 -12 5 8265.72 955.001 5
-12 5 -5 7152.41 855.934 10
-5 -12 -5 8784.9 1316.77 9
12 -5 -5 9300.86 1415.24 3
-12 -5 -5 8654.61 1282.79 9
5 -12 -5 7828.26 1201.98 3
-5 12 5 6572.72 1232.41 8
5 12 5 7582.42 1356.73 8
-5 12 -5 9346.8 1479.21 7
-12 -5 5 9762.33 1463.01 1
5 12 -5 7389.24 1190.91 7
-12 5 5 7989.9 843.855 4
-12 5 -5 8752.99 1465.75 7
5 12 -6 1994.15 612.898 7
12 5 -6 1550.67 428.823 6
12 -5 -6 1768.83 452.939 6
-12 5 6 1692.26 447.789 4
5 -12 -6 2378.85 547.361 6
12 -5 6 1850.66 527.873 5
5 -12 -6 2591.69 766.53 9
-12 5 6 2312.94 764.14 1
-5 -12 -6 2233.56 805.678 9
5 -12 6 2610.62 597.678 5
-5 12 6 1920.11 635.688 8
5 12 6 1197.18 476.879 8
12 5 -6 1176.42 634.384 3
-5 12 6 2481.4 725.558 1
-12 5 -6 2162.37 885.934 7
-12 -5 6 2475.01 764.922 1
-5 12 -6 2580.13 800.652 7
12 -5 -6 1637.56 589.344 3
-12 -5 7 287.222 558.391 1
5 -12 7 -292.695 295.203 5
12 -5 -7 96.3515 229.437 6
-12 5 7 -31.7479 265.846 4
-5 12 7 -1990.39 668.627 1
5 -12 -7 -44.9198 221.921 6
12 -5 7 334.634 283.39 5
5 -12 -7 -581.301 466.961 9
-5 -12 -7 -259.52 399.025 9
-12 5 7 -586.617 539.547 1
-5 12 7 -751.845 618.259 8
5 12 7 -852.975 696.845 8
12 5 -7 -58.3015 644.229 3
-12 5 -7 308.719 364.227 7
12 -5 -7 -599.196 562.467 3
-5 12 -7 726.395 576.369 7
12 -5 -8 294.289 188.262 6
-12 5 8 16.7146 232.867 4
5 -12 -8 -154.841 236.094 6
-5 12 8 205.695 250.102 4
12 -5 8 521.075 336.871 5
5 -12 8 -476.609 334.224 5
-5 -12 8 -212.436 322.956 5
-12 5 9 1694.8 430.311 4
-5 12 9 1224.6 441.197 4
12 -5 9 1560.34 509.227 5
5 -12 9 1273.82 475.291 5
-5 -12 9 2095.69 584.879 5
-12 5 10 2608.79 563.013 4
-5 12 10 3210.45 587.574 4
12 -5 10 2191.79 549.665 5
5 -12 10 2441.27 624.671 5
-5 -12 10 3437.38 686.457 5
-12 5 11 2053.67 480.314 4
12 -5 11 854.53 363.031 5
-5 12 11 1357.27 371.905 4
5 -12 11 1582.04 495.233 5
-5 -12 11 1374.75 458.847 5
-12 5 12 989.477 319.657 4
-5 12 12 665.146 267.929 4
5 -12 12 556.903 344.795 5
-5 -12 12 481.812 285.797 5
12 -5 12 429.182 343.592 5
12 -5 13 252.019 249.541 5
-12 5 13 155.416 168.644 4
-5 12 13 -8.62519 143.064 4
5 -12 13 -9.86361 165.53 5
-5 -12 13 -532.497 254.985 5
6 12 0 6322.65 1068.72 7
12 6 0 5774.96 765.064 6
12 -6 0 5498.62 710.795 6
12 -6 0 5489.41 981.587 3
-12 6 0 4923.97 732.155 10
12 6 0 5096.94 908.631 2
12 -6 0 4455.31 826.223 2
6 -12 0 6073.77 972.675 9
-12 -6 0 6331.15 1049.15 9
-6 -12 0 5270.93 993.335 9
-6 12 0 5132.59 957.222 8
6 12 0 5887.46 1007.49 8
-12 6 0 5123.03 926.793 7
-6 12 0 5282.74 940.581 7
6 12 -1 5902.68 1024.87 7
6 12 -1 5509.98 705.203 6
12 6 1 5871.52 743.561 6
12 6 -1 6308.01 782.547 6
12 -6 -1 4436.97 926.941 3
12 -6 1 4604.93 650.868 6
12 -6 -1 5476.01 717.937 6
12 -6 1 5692.75 1011.65 3
12 6 -1 5427.96 961.82 2
12 -6 -1 5266 978.785 2
-12 6 -1 5680.32 784.983 10
-12 -6 1 6471.82 1065.76 1
12 -6 1 4594.61 902.729 2
12 6 1 5865.79 990.869 2
-12 6 1 5260.95 771.91 10
-6 -12 -1 5927.87 1009.27 9
-12 -6 1 4853.24 950.472 9
-6 -12 1 5585.48 1017.15 9
-12 -6 -1 5171.37 975.138 9
-6 12 1 4977.11 896.49 8
6 12 1 3199.45 771.326 8
-12 6 -1 4815.93 987.634 7
-6 12 -1 5815.87 1039.43 7
-6 12 1 4170.26 859.957 7
6 12 -2 3509.36 835.756 7
12 -6 -2 3236.9 807.295 3
6 12 -2 1691.64 391.381 6
12 -6 2 3379.71 778.15 3
12 6 2 3163.14 575.606 6
6 -12 -2 3014.57 767.978 3
12 6 -2 3320.3 571.186 6
-12 6 -2 3642.89 635.493 10
12 -6 2 3021.97 522.07 6
12 -6 -2 3369.58 567.162 6
-12 -6 2 2750.9 681.904 1
6 -12 2 2787.95 549.708 6
-12 6 2 3723.31 676.993 10
12 -6 2 2898.05 730.947 2
12 6 2 2973.73 730.999 2
-6 -12 -2 3086.53 814.06 9
-6 -12 2 2361.99 687.652 9
-12 -6 -2 3121.71 796.872 9
-12 -6 2 3025.59 775.852 9
-6 12 2 1907.43 647.347 8
6 12 2 1811.13 572.931 8
-12 6 -2 3643.63 880.797 7
-6 12 -2 3703.25 877.933 7
12 -6 -3 772.353 572.408 3
6 12 -3 370.911 366.148 7
6 -12 -3 356.747 498.381 3
12 6 3 630.488 351.307 6
12 6 -3 608.866 290.646 6
12 -6 -3 365.371 351.204 6
6 -12 -3 381.431 273.884 6
-12 6 3 283.822 275.835 10
-12 6 -3 449.369 294.182 10
12 -6 3 759.562 453.527 2
12 6 3 642.789 484.146 2
-12 -6 3 -556.842 463.919 1
-6 -12 -3 432.272 421.667 9
-6 -12 3 585.712 362.524 9
-12 -6 -3 400.604 445.755 9
-12 -6 3 459.753 460.276 9
-6 12 3 609.657 557.464 8
6 12 3 131.497 414.723 8
12 6 -3 1076.46 435.222 3
-12 6 -3 121.459 396.76 7
-6 12 -3 1152.66 573.201 7
6 12 -4 405.435 461.522 7
12 6 4 481.234 314.142 6
6 -12 -4 578.378 487.766 3
12 6 -4 -43.1146 198.611 6
-12 6 4 36.7349 205.416 10
-12 6 -4 171.321 254.516 10
12 -6 -4 -279.929 241.783 6
6 -12 -4 246.692 214.864 6
-12 6 4 308.859 315.124 1
12 -6 4 4.60333 292.968 2
12 6 4 -85.9317 302.327 2
-6 -12 -4 -230.667 400.511 9
-12 -6 -4 -12.0613 382.453 9
-12 -6 4 -69.7694 353.57 1
-6 12 4 316.073 607.43 8
6 12 4 -546.606 376.819 8
12 6 -4 843.607 425.471 3
-12 6 -4 282.389 379.786 7
-6 12 -4 200.385 452.416 7
12 -6 -4 1435.07 613.582 3
6 12 -5 555.638 384.474 7
6 -12 -5 331.152 408.456 3
12 6 -5 257.038 195.678 6
12 -6 -5 207.091 203.618 6
-12 6 -5 188.829 259.747 10
-12 6 5 518.391 252.183 4
6 -12 -5 -236.778 280.429 6
-12 6 5 492.501 378.965 1
-6 -12 -5 303.632 365.684 9
-12 -6 -5 -18.6079 372.602 9
6 -12 5 64.2201 221.449 5
-12 -6 5 -407.67 411.723 1
-6 12 5 481.224 401.935 8
6 12 5 139.347 337.713 8
12 6 -5 -498.876 528.814 3
-12 6 -5 -71.7589 474.262 7
-6 12 -5 -78.4722 538.971 7
12 -6 -5 225.761 312.481 3
6 -12 -6 336.63 386.762 3
12 6 -6 208.469 256.131 6
12 -6 -6 39.1303 202.195 6
-12 6 6 416.228 285.236 4
6 -12 -6 505.177 267.725 6
12 -6 6 187.722 230.735 5
-6 -12 -6 406.289 454.845 9
6 -12 6 215.855 209.574 5
-12 6 6 957.163 450.972 1
-6 12 6 443.081 500.987 8
6 12 6 -601.203 526.976 8
12 6 -6 649.491 349.898 3
-12 -6 6 635.302 553.471 1
-12 6 -6 679.891 571.548 7
-6 12 -6 310.348 555.492 7
12 -6 -6 36.4525 478.017 3
12 -6 -7 -61.2909 247.836 6
-12 6 7 583.748 334.414 4
6 -12 -7 164.731 201.116 6
12 -6 7 261.14 296.01 5
6 -12 7 -80.6924 321.076 5
12 -6 -8 279.873 288.638 6
-12 6 8 406.879 267.007 4
6 -12 -8 -42.1852 192.106 6
-6 12 8 -178.623 284.496 4
12 -6 8 105.269 233.482 5
6 -12 8 -376.426 361.43 5
-6 -12 8 314.867 365.054 5
-12 6 9 377.846 243.004 4
-6 12 9 204.542 258.452 4
12 -6 9 328.011 291.644 5
6 -12 9 43.7033 236.726 5
-6 -12 9 50.0208 283.697 5
-12 6 10 165.471 234.236 4
-6 12 10 43.1282 224.692 4
12 -6 10 92.0021 223.566 5
6 -12 10 67.9979 283.867 5
-6 -12 10 -164.547 235.612 5
-12 6 11 277.678 253.638 4
-6 12 11 566.733 272.708 4
12 -6 11 -249.654 211.721 5
6 -12 11 59.2925 254.352 5
-6 -12 11 333.483 288.766 5
-12 6 12 158.079 194.996 4
12 -6 12 72.3766 199.512 5
6 -12 12 171.793 227.271 5
-6 -12 12 437.122 232.444 5
-12 6 13 -192.853 183.807 4
-6 12 13 342.498 181.762 4
12 -6 13 288.968 206.021 5
6 -12 13 120.53 178.912 5
7 12 0 -35.2383 243.311 6
12 -7 0 -305.408 357.901 3
12 7 0 -67.4529 238.352 6
12 -7 0 -194.292 227.903 6
12 -7 0 78.0093 392.679 2
12 7 0 36.2228 331.314 2
7 -12 0 -132.909 277.505 6
-12 7 0 75.5784 223.39 10
-7 -12 0 64.7407 422.57 9
-12 -7 0 -86.4904 383.658 9
-7 12 0 728.541 397.478 8
7 12 0 -489.31 483.334 8
-12 7 0 -603.355 519.051 7
-7 12 0 30.7453 355.629 7
7 12 -1 4422.58 657.074 6
12 7 1 4246.87 647.119 6
12 7 -1 5089.31 712.494 6
12 -7 -1 4675.29 670.035 6
7 12 1 3591.87 597.025 6
12 -7 -1 3781.77 869.669 3
12 -7 1 3904.99 826.264 2
12 7 1 4378.72 838.222 2
12 -7 1 5047.04 999.074 3
7 -12 -1 4497.89 950.712 3
12 -7 1 3569.31 597.302 6
12 7 -1 4518.12 885.23 2
12 -7 -1 3743.33 865.626 2
-12 -7 1 5255.37 1064.03 1
7 -12 1 3538.54 590.599 6
7 -12 -1 3950.11 635.133 6
-12 7 1 4349.5 746.684 10
-12 -7 -1 3988.46 860.309 9
-7 -12 -1 3917.64 850.869 9
-7 -12 1 4037.28 874.026 9
-12 -7 1 4500.31 919.216 9
7 12 -1 2617.88 622.125 8
-7 12 1 2638.62 684.113 8
7 12 1 2455.06 693.167 8
-12 7 -1 3735.29 843.398 7
-7 12 -1 3595.26 837.372 7
-7 12 1 3677.31 821.848 7
7 12 -2 10232.1 991.745 6
12 7 2 10918.6 1032.6 6
12 7 -2 11886.9 1107.04 6
12 -7 2 8309.35 857.186 6
12 -7 -2 11434.6 1039.58 6
7 -12 2 8810.33 892.394 6
7 -12 -2 11366.9 1103.56 6
-12 7 -2 10123 1044.52 10
12 7 -2 9400.91 1233.06 2
12 -7 -2 9400.7 1309.88 2
12 -7 2 9199.12 1235.49 2
12 7 2 9249.39 1226.45 2
12 -7 2 11089.8 1439.74 3
-12 7 2 11001 1099.38 10
-7 -12 -2 8540.34 1259.72 9
-7 -12 2 9450.15 1322.16 9
-12 -7 -2 9408.54 1358.61 9
-12 -7 2 9808.7 1334.6 9
12 -7 -2 10422 1448.97 3
7 -12 -2 9282.5 1345.21 3
-7 -12 2 10079.4 1327.15 1
7 12 2 8462.55 1227.86 8
-12 -7 2 10530.6 1455.53 1
-7 12 2 6691.27 1142.99 8
-12 7 -2 10379.8 1498.27 7
-7 12 -2 11285.6 1531.74 7
7 12 -2 9795.14 1365.68 7
7 12 -3 5265.48 1015.26 7
7 12 -3 5744.69 723.588 6
12 -7 -3 6960.92 1235.58 3
12 7 3 7868.61 853.024 6
12 7 -3 8108.19 944.071 6
12 -7 -3 7199.22 864.324 6
7 -12 -3 7830.61 919.581 6
-12 7 3 7237.48 932.484 10
12 -7 3 8748.37 1260.82 2
12 7 3 7461.99 1147.63 2
-12 7 -3 7384.95 891.655 10
-12 -7 -3 7074.92 1175 9
-12 -7 3 6750.9 1202.46 1
-12 -7 3 6925.29 1221.76 9
-7 -12 -3 7102.84 1143.71 9
-7 -12 3 6169.6 1036.3 9
7 -12 -3 7643.64 1268.84 3
-7 -12 3 6907.21 1068.27 1
-7 12 3 5942.73 1153.92 8
7 12 3 5528.51 999.518 8
-7 12 -3 7780.85 1389.02 7
-12 7 -3 6951.11 1300.06 7
7 12 -4 5709.1 1074.98 7
12 7 4 7446.11 853.825 6
12 7 -4 8125.9 932.692 6
12 -7 -4 8723.05 936.065 6
7 -12 -4 6878.94 885.485 6
-12 7 4 7113.99 884.946 10
-12 7 -4 6988.93 876.795 10
-7 -12 -4 7478.48 1251.34 9
12 -7 -4 8781.96 1412.79 3
7 -12 -4 7485.65 1302.74 3
12 -7 4 6342.46 1107.27 2
12 7 4 6573.68 1096.5 2
-12 -7 -4 6492.88 1122.63 9
-12 -7 4 6969.9 1234.53 1
-12 -7 4 7204.95 1219.52 9
-7 12 4 4898.59 1168.34 8
7 12 4 5796.38 1143.71 8
12 7 -4 6110.96 1140.8 3
-12 7 -4 7532.85 1358.71 7
-7 12 -4 7072.4 1290.33 7
12 7 5 14081.5 1135.55 6
12 7 -5 15071.1 1228.92 6
12 -7 -5 16551 1276.14 6
7 -12 -5 16448.3 1318.03 6
-12 7 -5 14789.9 1243.88 10
12 7 -5 12553.7 1658.37 3
-7 -12 -5 17062 1875.81 9
-12 -7 -5 13238.9 1623.6 9
12 -7 -5 15897.2 2011.74 3
7 -12 -5 13272.5 1663.14 3
-7 12 5 8981.73 1484.6 8
7 12 5 10560.4 1541.18 8
-12 7 -5 20302.3 2277.98 7
-12 -7 5 17669.8 2000.68 1
-7 12 -5 16431.6 2068.14 7
7 12 -5 11216.3 1482.09 7
12 -7 -6 5206.53 1143.85 3
12 7 -6 5539.36 746.418 6
12 -7 -6 5104.97 731.341 6
7 -12 -6 5720.43 790.308 6
7 -12 -6 3438.84 877.433 3
7 -12 6 6102.44 824.71 5
-12 7 -6 4952.35 710.582 10
-7 -12 -6 6063.79 1134.28 9
12 7 -6 6172 1277.18 3
-12 -7 6 5748.77 1196.11 1
-12 7 6 6567.26 861.832 4
-12 7 -6 4653.42 1158.7 7
-12 7 6 4867.63 1053.65 1
-7 12 -6 5761.09 1269.11 7
12 -7 -7 1117.95 385.514 6
-12 7 7 1435.03 456.004 4
7 -12 -7 477.252 259.315 6
12 -7 7 1647.81 506.853 5
7 -12 7 1259.26 466.963 5
12 -7 -8 1608.45 436.77 6
-12 7 8 1627.63 486.568 4
7 -12 -8 1213.34 394.202 6
-7 12 8 2135.4 521.509 4
12 -7 8 2308.33 557.648 5
7 -12 8 1712.3 518.111 5
-7 -12 8 2149.58 603.373 5
-12 7 9 1908.78 495.266 4
-7 12 9 1346.5 406.899 4
7 -12 9 1473.66 475.663 5
12 -7 9 1680.95 512.946 5
-7 -12 9 1134.27 417.545 5
-12 7 10 1837.26 456.962 4
-7 12 10 2560.57 549.443 4
12 -7 10 2463.28 556.564 5
7 -12 10 2042.15 555.712 5
-7 -12 10 2507.71 570.679 5
-12 7 11 2203.88 469.758 4
-7 12 11 2044.36 456.533 4
12 -7 11 1308.71 450.071 5
7 -12 11 2464.18 538.97 5
-7 -12 11 2907.39 560.368 5
-12 7 12 -98.0538 179.206 4
-7 12 12 283.26 193.238 4
12 -7 12 587.511 309.555 5
7 -12 12 114.917 200.265 5
-7 -12 12 228.794 211.224 5
12 -7 13 -29.1678 149.083 5
-12 7 13 3.10312 123.02 4
-7 12 13 258.055 136.083 4
7 -12 13 224.255 200.674 5
12 8 0 4191.11 668.401 6
8 12 0 3510.81 598.367 6
12 -8 0 4117.61 995.224 3
12 -8 0 3756.08 626.166 6
8 -12 0 3600.07 623.826 6
-8 -12 0 2869.23 720.478 9
-12 -8 0 3389.39 807.023 9
-8 12 0 1728.27 576.29 8
-8 12 0 2558.36 708.553 7
8 12 1 2782.65 543.861 6
8 12 -1 2626.11 548.92 6
12 -8 -1 4948.44 1159.27 3
12 8 1 2985.4 586.94 6
12 -8 1 3113.4 862.005 3
12 8 -1 3621.55 629.807 6
8 -12 -1 2499.2 692.742 3
-12 8 1 3051.51 584.649 10
12 -8 1 2880.51 562.524 6
12 -8 -1 2985.72 545.249 6
-8 12 -1 1109.58 513.889 8
-12 -8 1 3325.59 920.56 1
8 -12 1 3543.5 613.666 6
8 -12 -1 3206.11 596.301 6
-8 -12 -1 3487.05 789.941 9
-8 -12 1 2557.43 717.095 9
-12 -8 -1 3349.82 853.384 9
-12 -8 1 3276.51 812.64 9
-12 8 -1 3030.91 796.977 7
-8 12 -1 2358.32 685.069 7
8 12 2 1791.68 481.087 6
12 -8 -2 766.765 550.953 3
8 12 -2 1361.76 415.888 6
12 8 2 947.642 325.24 6
8 -12 -2 1240.14 587.239 3
12 8 -2 1032.96 377.02 6
-8 -12 2 670.741 452.262 9
12 -8 2 822.346 343.197 6
12 -8 -2 1393.09 406.183 6
8 -12 2 1119.86 401.627 6
-8 -12 2 1160.7 548.71 1
8 -12 -2 1631.01 466.827 6
-12 -8 2 535.685 500.94 1
-12 8 2 1514.42 480.753 10
-8 -12 -2 1825.21 682.037 9
-12 -8 -2 947.225 469.93 9
-12 -8 2 2340.11 747.462 9
-12 8 -2 955.125 630.826 7
-8 12 -2 1761.22 553.483 7
12 -8 -3 607.125 510.788 3
8 12 -3 901.558 355.164 6
12 8 3 1661.39 478.321 6
8 -12 -3 1033.15 463.203 3
12 8 -3 1524.93 474.069 6
12 -8 -3 1195.32 404.483 6
8 -12 -3 1318.4 406.064 6
-12 8 3 1083.54 406.018 10
-12 -8 3 327.997 394.61 1
-8 -12 -3 1983.2 735.705 9
-12 -8 -3 826.084 534.847 9
-8 -12 3 651.64 376.556 9
-12 -8 3 929.673 522.877 9
-8 -12 3 926.33 504.545 1
-12 8 -3 1625.46 634.993 7
-8 12 -3 2454.77 782.841 7
-12 -8 4 2525.68 824.192 9
12 -8 -4 2535.53 754.52 3
8 12 -4 1797.94 446.023 6
-12 8 4 2939.43 611.578 10
12 8 4 2276.33 487.1 6
8 -12 -4 2360.48 740.252 3
12 8 -4 3005.72 601.75 6
-12 -8 4 2531.35 666.796 1
12 -8 -4 2401.58 537.916 6
8 -12 -4 3421.02 648.294 6
-12 8 -4 2574.13 563.901 10
-8 -12 -4 2581.65 741.204 9
-12 -8 -4 3017.12 828.213 9
-12 8 -4 3190.93 993.926 7
-8 12 -4 2861.92 817.525 7
12 -8 -5 3327.82 915.269 3
8 -12 -5 4637.64 748.898 6
12 8 5 3096.45 567.746 6
8 -12 -5 2913.93 828.12 3
12 8 -5 4122.55 686.651 6
-12 8 -5 3505.09 633.787 10
12 -8 -5 3655.7 621.801 6
-8 -12 -5 2979.2 806.784 9
-12 -8 -5 1971.83 683.359 9
-12 -8 5 2671.97 867.121 1
12 8 -5 2426.46 728.991 3
-12 8 -5 3663.56 998.053 7
-8 12 -5 3419.23 964.281 7
12 8 -6 59.383 217.981 6
12 -8 -6 717.892 322.873 6
8 -12 -6 574.899 354.868 6
-12 8 6 220.331 263.891 4
-12 8 -6 800.288 353.325 10
8 -12 6 283.022 209.365 5
12 -8 -7 37.3463 189.081 6
8 -12 -7 -590.431 296.005 6
-12 8 7 127.287 245.27 4
12 -8 7 197.018 259.755 5
8 -12 7 -43.7383 222.247 5
12 -8 -8 453.041 318.785 6
-12 8 8 65.8846 257.407 4
8 -12 -8 82.3494 216.752 6
-8 12 8 492.977 284.606 4
12 -8 8 559.435 317.935 5
8 -12 8 466.747 344.151 5
-8 -12 8 206.553 288.153 5
-12 8 9 -211.696 201.122 4
-8 12 9 -256.549 247.981 4
12 -8 9 158.683 283.87 5
8 -12 9 235.036 293.047 5
-8 -12 9 609.715 346.815 5
8 -12 10 662.209 355.675 5
-12 8 10 919.189 353.894 4
-8 12 10 704.798 322.065 4
12 -8 10 304.036 277.197 5
-8 -12 10 1011.23 390.953 5
-12 8 11 64.6575 186.725 4
-8 12 11 -11.0983 223.82 4
-8 -12 11 -17.8099 187.981 5
12 -8 11 251.515 250.476 5
8 -12 11 352.97 300.802 5
-12 8 12 111.68 186.982 4
12 -8 12 -231.62 232.88 5
-8 12 12 37.2715 170.633 4
8 -12 12 187.151 201.02 5
-12 8 13 -375.312 188.991 4
8 -12 13 -66.4617 130.226 5
9 12 0 -326.472 255.502 6
12 9 0 62.5545 216.957 6
12 -9 0 -433.73 505.353 3
12 -9 0 -224.578 246.369 6
9 -12 0 9.04987 262.725 6
-9 -12 0 -263.555 380.098 9
-12 -9 0 -626.626 440.351 9
-9 12 0 432.37 418.936 7
9 12 1 5664.41 780.893 6
9 12 -1 4903.14 711.473 6
12 9 1 5391.32 745.921 6
12 9 -1 5252.66 772.579 6
12 -9 1 5465.06 743.727 6
12 -9 -1 4875.33 722.85 6
9 -12 1 6359.55 800.689 6
9 -12 -1 6062.11 818.86 6
12 -9 -1 5322.13 1086.11 3
12 -9 1 5896.7 1178.63 3
9 -12 -1 4534.42 990.16 3
-12 -9 1 5440.5 1179.84 1
-9 -12 -1 3328.08 811.592 9
-9 -12 1 4926.25 1032.61 9
-12 -9 -1 4314.58 960.623 9
-12 -9 1 4419.85 990.139 9
-12 9 -1 3496.93 906.922 7
-9 12 -1 5496.28 1088.6 7
9 12 2 10710.9 1055.31 6
9 12 -2 12166.6 1136.33 6
12 9 2 10779.3 1055.7 6
12 9 -2 11495.2 1117.35 6
12 -9 2 10314.3 977.223 6
12 -9 -2 12191.7 1122.18 6
9 -12 2 10347.8 982.915 6
9 -12 -2 12208.3 1164.52 6
-12 9 2 10476.4 1086.88 10
-9 -12 -2 10425.2 1491.27 9
-12 -9 -2 10224.3 1449.73 9
-9 -12 2 10439.3 1444.56 9
-12 -9 2 9180.04 1363.23 9
12 -9 -2 9804.33 1461.72 3
9 -12 -2 10302.8 1569.09 3
-9 -12 2 8790.38 1350.21 1
-12 -9 2 11092.7 1538.55 1
-12 9 -2 11090 1602.35 7
-9 12 -2 9918.83 1550.88 7
9 12 -3 15439.1 1241.29 6
12 9 3 16517.3 1279.8 6
12 9 -3 17633.7 1385.52 6
12 -9 -3 16760.8 1330.64 6
9 -12 -3 17134.5 1369.44 6
-9 -12 3 11589.8 1523.31 1
-12 9 3 16485.6 1369.1 10
-9 -12 -3 13135.8 1654.69 9
-12 -9 -3 13622.4 1662.34 9
-9 -12 3 12509.4 1632.06 9
-12 -9 3 12641.3 1681.75 9
12 -9 -3 17558.4 1986.94 3
9 -12 -3 16759.9 1911.74 3
-12 -9 3 16299.9 1879.63 1
-12 9 -3 15627.8 1948.84 7
-9 12 -3 17786.2 2114.99 7
9 12 -4 11633.6 1060.69 6
12 9 4 11655.3 1079.3 6
12 9 -4 11497.5 1135.33 6
12 -9 -4 11851.1 1132.57 6
9 -12 -4 12228.7 1170.85 6
-12 9 4 11721.2 1176.81 10
-9 -12 -4 10376.5 1494.2 9
-12 -9 -4 10355.1 1476.75 9
-12 -9 4 11102.1 1549.4 9
9 -12 -4 12037.5 1699.76 3
12 -9 -4 11103.5 1675.55 3
-12 -9 4 10723.8 1610.29 1
-12 9 -4 12882 1873.6 7
-9 12 -4 11707.7 1756.2 7
9 12 -5 1352.05 389.16 6
12 9 5 1478.29 395.596 6
12 9 -5 1851.24 472.108 6
-12 9 -5 1308.79 382.289 10
12 -9 -5 1516.65 446.376 6
9 -12 -5 2287.18 521.563 6
12 9 -6 -60.5352 218.861 6
12 -9 -6 -196.891 218.929 6
9 -12 -6 316.36 261.515 6
-12 9 6 616.462 333.445 4
-12 9 -6 223.287 196.82 10
12 -9 -7 621.877 305.068 6
9 -12 -7 398.562 289.024 6
-12 9 7 493.597 316.41 4
9 -12 7 86.1167 300.939 5
12 -9 -8 -195.79 251.649 6
-12 9 8 -296.641 311.843 4
9 -12 -8 -87.3193 184.799 6
-9 12 8 76.483 226.514 4
12 -9 8 272.948 293.877 5
9 -12 8 329.226 287.083 5
-9 -12 8 379.289 317.411 5
-12 9 9 2004.23 476.752 4
-9 12 9 1949.68 489.686 4
12 -9 9 1561.77 455.621 5
9 -12 9 1308.53 411.682 5
-9 -12 9 1928.19 494.312 5
-12 9 10 1431.07 388.677 4
-9 12 10 1352.16 390.553 4
12 -9 10 741.254 364.438 5
9 -12 10 1462.14 427.636 5
-9 -12 10 1481.25 442.969 5
-12 9 11 336.04 202.95 4
-9 12 11 322.259 194.95 4
12 -9 11 84.4502 184.473 5
9 -12 11 215.384 256.104 5
-9 -12 11 221.048 247.023 5
-12 9 12 90.843 156.751 4
-9 12 12 120.376 167.564 4
12 -9 12 83.2625 163.274 5
9 -12 12 59.2003 178.291 5
10 12 0 10139.5 1035.16 6
12 10 0 8669.7 968.867 6
12 -10 0 8947.53 977.208 6
10 -12 0 8876.43 975.081 6
12 -10 0 7930.75 1317.35 3
-10 -12 0 9013.01 1412.8 9
-12 -10 0 7878.87 1321.78 9
12 -10 -1 4091.96 714.309 6
10 12 1 3681.22 638.017 6
10 12 -1 3523.37 668.881 6
12 10 1 3646.24 653.678 6
12 10 -1 4033.59 702.757 6
12 -10 -1 2897.9 908.992 3
10 -12 -1 2875.43 777.141 3
12 -10 1 3005.02 580.463 6
10 -12 1 2955.43 577.722 6
10 -12 -1 4243.54 729.51 6
-12 -10 1 4445.88 1003.88 1
-10 -12 -1 3018.46 848.068 9
-10 -12 1 4730.16 1037.83 9
-12 -10 -1 2262.45 717.284 9
-12 -10 1 3420.04 824.857 9
-10 12 -1 2410.38 767.81 7
10 12 2 763.401 378.908 6
10 12 -2 534.563 261.128 6
12 10 2 1097.47 398.894 6
12 -10 -2 1067.31 369.071 3
12 10 -2 1365.9 454.74 6
10 -12 -2 -55.6857 299.781 3
-12 -10 2 349.255 527.163 1
12 -10 2 -48.829 206.476 6
12 -10 -2 1204.18 433.902 6
10 -12 2 1254.61 415.832 6
10 -12 -2 1159.07 446.702 6
-12 10 2 363.791 302.929 10
-10 -12 2 1095.76 666.056 1
-10 -12 -2 583.1 387.308 9
-12 -10 -2 -383.994 464.023 9
-10 -12 2 1422.96 740.08 9
-12 -10 2 405.799 418.552 9
-12 10 -2 -461.966 295.411 7
-10 12 -2 258.108 434.068 7
10 12 -3 -41.3878 238.249 6
12 10 3 -24.7963 211.902 6
12 -10 -3 308.318 340.277 3
12 10 -3 115.033 302.252 6
10 -12 -3 1088.1 581.799 3
12 -10 -3 -250.662 314.373 6
10 -12 -3 -292.187 342.924 6
-12 10 3 18.3829 235.438 10
-10 -12 3 -808.164 471.424 1
-12 -10 3 -105.897 496.631 1
-10 -12 -3 -483.266 583.632 9
-12 -10 -3 603.62 436.691 9
-10 -12 3 1046.15 508.068 9
-12 -10 3 -301.656 311.876 9
-12 10 -3 217.246 365.744 7
-10 12 -3 239.578 488.228 7
10 12 -4 390.159 264.743 6
12 10 4 -5.42502 216.773 6
12 10 -4 -47.5749 220.217 6
-12 10 4 247.001 266.825 10
12 -10 -4 -316.585 310.976 6
10 -12 -4 -242.335 303.536 6
10 12 -5 168.134 187.32 6
12 10 -5 646.938 323.174 6
12 -10 -5 -345.187 360.488 6
10 -12 -5 -213.762 262.875 6
12 10 -6 637.127 285.416 6
12 -10 -6 846.671 316.398 6
10 -12 -6 998.312 352.636 6
-12 10 6 669.468 350.244 4
-12 10 -6 1084.63 399.161 10
12 -10 -7 1725.58 428.652 6
10 -12 -7 1660.95 456.617 6
-12 10 7 2083.63 529.663 4
-10 12 7 1951.05 477.516 4
12 -10 -8 721.671 265.771 6
10 -12 -8 1612.13 402.161 6
-12 10 8 1022.23 407.113 4
-10 12 8 1643.53 461.814 4
12 -10 8 1474.39 435.789 5
10 -12 8 918.299 455.936 5
-10 -12 8 1859.72 520.315 5
-12 10 9 513.268 273.069 4
-10 12 9 1092.5 409.139 4
12 -10 9 878.076 380.56 5
10 -12 9 418.055 249.648 5
-10 -12 9 739.175 345.667 5
-12 10 10 -96.6817 198.056 4
-10 12 10 -86.4781 221.144 4
12 -10 10 138.045 170.705 5
10 -12 10 355.042 231.817 5
-10 -12 10 -289.711 242.9 5
-12 10 11 19.819 166.444 4
-10 12 11 -354.923 234.123 4
12 -10 11 199.541 190.112 5
10 -12 11 -246.423 237.643 5
-12 10 12 57.5354 129.621 4
-10 12 12 -29.0683 141.659 4
10 -12 12 -329.954 200.593 5
11 12 0 -0.85003 240.344 6
12 11 0 64.8211 207.727 6
12 -11 0 246.128 263.053 6
11 -12 0 -246.037 247.665 6
-11 -12 0 -462.299 442.13 9
-12 -11 0 -721.404 552.243 9
11 12 1 1488.57 458.69 6
11 12 -1 1538.66 456.677 6
12 11 1 917.264 364.607 6
12 11 -1 1716.96 449.138 6
12 -11 -1 771.126 513.867 3
12 -11 1 1316.92 397.055 6
12 -11 -1 1657.01 462.212 6
11 -12 1 1806.72 445.767 6
11 -12 -1 1026.47 385.411 6
-11 -12 1 2492.15 851.278 1
-12 -11 1 755.18 549.261 1
-11 -12 1 356.332 333.911 9
-12 -11 1 1330.31 696.086 9
11 12 2 3551.58 627.315 6
11 12 -2 3623.04 658.471 6
12 11 2 4049.22 669.872 6
12 11 -2 4512.46 705.485 6
12 -11 2 3105.15 556.608 6
11 -12 2 4352.05 643.511 6
12 -11 -2 4248.06 685.697 6
11 -12 -2 4634.66 753.931 6
11 12 3 2225.89 533.956 6
12 11 3 2206.85 530.243 6
11 12 -3 3151.27 628.003 6
12 11 -3 3563.26 656.907 6
12 -11 -3 2941.41 583.743 6
11 -12 -3 2853.98 615.587 6
-12 11 3 2360.62 582.376 10
12 11 4 2008.42 513.731 6
11 12 -4 2070.66 489.502 6
12 11 -4 2345.8 538.336 6
-12 11 4 1894.91 477.739 10
12 -11 -4 2127.91 497.51 6
11 -12 -4 2754.73 573.66 6
-11 12 4 2337.74 547.329 10
11 12 -5 1079.52 396.281 6
12 11 -5 816.786 352.636 6
12 -11 -5 901.263 313.849 6
11 -12 -5 642.202 335.406 6
-12 11 -5 1102.22 408.23 10
12 -11 -6 -372.779 274.749 6
11 -12 -6 -76.0414 218.506 6
-12 11 6 -157.199 255.765 4
-12 11 -6 -60.1033 225.539 10
-11 12 -7 387.56 291.372 10
12 -11 -7 84.3137 231.928 6
11 -12 -7 62.6726 186.77 6
-12 11 7 197.709 268.248 4
-11 12 7 322.326 290.336 4
12 -11 -8 325.072 224.661 6
11 -12 -8 833.165 256.871 6
-12 11 8 418.689 299.931 4
-12 -11 8 501.428 321.096 5
-11 -12 8 456.854 324.281 5
11 -12 -9 762.364 274.726 6
-12 11 9 670.8 284.984 4
-11 12 9 322.049 229.455 4
11 -12 9 863.219 337.196 5
-11 -12 9 244.009 257.023 5
-12 11 10 301.365 194.1 4
-11 12 10 37.8481 189.525 4
12 -11 10 349.671 219.609 5
11 -12 10 249.359 209.29 5
-12 11 11 105.238 141.796 4
12 -11 11 -336.181 214.907 5
-11 12 11 170.919 167.087 4
11 -12 11 -129.26 153.34 5
-11 12 12 176.395 131.123 4
12 12 0 8026.49 958.047 6
12 -12 0 6894.83 897.336 6
12 12 1 4485.38 714.003 6
12 12 -1 4550.12 746.12 6
12 -12 1 4754.2 739.334 6
12 -12 -1 5039.21 765.284 6
12 12 2 2353.34 545.689 6
12 12 -2 2151.34 506.099 6
12 -12 2 1869.8 448.879 6
12 -12 -2 1929.8 505.22 6
12 12 3 247.897 263.866 6
12 12 -3 421.563 280.424 6
12 -12 -3 461.707 361.384 6
-12 12 3 255.969 255.413 10
12 12 -4 801.823 333.768 6
12 -12 -4 126.288 232.756 6
-12 12 4 371.585 273.866 10
12 12 -5 1383.82 405.249 6
12 -12 -5 1070.58 374.213 6
12 -12 -6 2471.57 515.747 6
-12 12 6 2447.84 542.26 4
-12 12 -6 2359.29 552.128 10
12 -12 -7 1659.1 445.031 6
-12 12 7 2068.27 466.131 4
12 -12 -8 1378.39 370.203 6
-12 12 8 1579.79 417.518 4
-12 -12 8 1994.46 497.619 5
-12 12 9 661.154 288.847 4
-12 12 10 235.689 206.771 4
-12 12 11 -72.9843 137.559 4
13 0 0 -49.7286 181.638 6
-13 0 0 391.242 278.63 1
0 -13 0 -411.455 480.058 9
13 0 0 71.0845 212.856 3
0 13 0 337.592 473.379 7
0 13 1 3235.16 755.845 7
13 0 -1 2757.48 482.352 6
13 0 -1 3162.1 811.714 2
13 0 1 2563.6 770.77 2
-13 0 -1 3190.05 697.857 1
0 -13 -1 4188.66 865.175 9
0 -13 1 2965.5 682.091 9
-13 0 1 2980.83 685.507 1
0 13 1 3351.26 821.899 8
13 0 -1 2597.37 640.747 3
0 13 -1 2567.49 669.554 7
13 0 -2 14582.2 1134.06 6
13 0 2 16316.8 1740.05 2
0 -13 -2 16893.9 1714.05 9
13 0 -2 13243.6 1492.36 3
0 13 2 14133.3 1601.74 8
-13 0 -2 14431.4 1372.7 1
-13 0 2 16342 1619.64 1
0 13 -2 15404 1644.2 7
0 13 2 14928.6 1585.7 7
13 0 3 6626.25 724.82 6
13 0 -3 8380.84 875.901 6
13 0 3 8996.89 1321.18 2
0 -13 -3 8506.04 1243.32 9
13 0 -3 8087.82 1166.32 3
0 13 3 7190.12 1168.47 8
-13 0 3 8791.76 1244.59 1
0 13 -3 8200.58 1221.93 7
0 13 3 7684.02 1187.35 7
13 0 -4 2165.45 470.478 6
13 0 4 2198.8 503.975 5
13 0 4 2548.87 766.288 2
0 -13 -4 1448.49 627.866 9
0 13 4 1004.3 522.681 8
13 0 -4 2465.84 716.514 3
-13 0 4 2100.99 714.693 1
0 13 -4 2170.7 721.61 7
-13 0 5 255.382 460.359 1
13 0 5 60.9789 267.131 5
13 0 -5 73.8519 205.911 6
13 0 5 -271.129 427.214 2
0 13 5 -720.602 401.362 8
13 0 -5 -100.227 365.888 3
0 13 -5 -775.135 499.552 7
-13 0 6 -464.059 514.766 1
13 0 6 -150.203 250.936 5
13 0 -6 -80.9221 201.45 6
0 -13 -6 -1063.86 554.03 9
0 13 6 -82.8698 438.571 8
0 -13 6 -246.456 349.303 5
13 0 -6 489.624 554.124 3
0 13 -6 324.007 388.032 7
13 0 7 440.095 343.249 5
13 0 -7 72.6714 221.78 6
-13 0 7 881.944 629.309 1
0 13 7 216.035 214.566 4
0 -13 -7 483.238 503.93 9
0 13 7 -327.635 668.042 8
0 -13 7 144.087 349.898 5
13 0 -7 748.438 446.369 3
0 13 -7 344.402 397.896 7
0 13 8 1451.85 436.462 4
13 0 8 1917.75 522.113 5
0 -13 8 1847.71 557.179 5
13 0 9 2724.9 591.93 5
0 -13 9 2261.9 613.639 5
-13 0 10 781.948 333.227 4
13 0 10 708.315 317.913 5
0 -13 10 1051.29 439.017 5
-13 0 11 407.478 230.622 4
13 0 11 148.955 230.132 5
0 -13 11 343.062 302.106 5
-13 0 12 452.811 250.936 4
0 -13 12 197.795 209.967 5
0 -13 13 224.245 244.585 5
13 1 0 7421.3 824.87 6
13 -1 0 6771.43 776.477 6
13 1 0 11637.2 1496.2 2
13 -1 0 7405.57 1169.87 2
-13 1 0 6764.24 820.271 10
1 -13 0 7917.37 1124.61 9
-1 -13 0 6976.95 1096.58 9
13 -1 0 7607.7 1068.4 3
-13 -1 0 7491.32 1122.34 1
-13 1 0 6226.68 930.86 1
-1 13 0 7062.98 1076.24 7
1 13 0 8658.45 1242.71 7
-1 13 1 2733.51 779.454 7
1 13 1 1290.12 561.254 7
-13 -1 -1 2489.54 612.002 1
13 1 1 1903.45 426.173 6
13 1 -1 2137.32 445.681 6
13 -1 -1 2505.79 505.402 6
13 1 -1 1610.05 640.885 2
13 -1 -1 3976.9 984.02 2
13 -1 1 2740.3 812.063 2
13 1 1 1622.16 559.513 2
-13 1 1 2658.81 559.181 10
-1 -13 -1 1853.82 599.23 9
-13 1 -1 2083.24 502.665 10
-13 1 -1 2181.42 630.778 1
1 -13 -1 2938.7 788.231 9
-13 -1 1 2242.64 668.416 1
1 -13 1 1453.86 536.965 9
-1 -13 1 1874.06 565.089 9
-13 1 1 2342.83 827.877 1
-1 13 1 2840.66 811.64 8
1 13 1 1512.07 547.778 8
13 1 -1 1967.17 529.453 3
13 -1 -1 2579.18 674.524 3
-1 13 -1 2339.81 699.227 7
1 13 -1 1529.09 510.581 7
-1 13 2 2924.53 758.54 7
1 13 2 3177.74 818.602 7
13 1 2 2119.49 442.449 6
13 1 -2 3439.33 569.283 6
13 -1 -2 2566.11 507.828 6
-13 1 -2 2346.63 489.298 10
-13 -1 -2 4134.88 801.617 1
13 -1 2 4135.5 923.902 2
13 1 2 3838.59 928.051 2
1 -13 -2 3353.39 753.62 9
-1 -13 -2 4355.2 905.319 9
-13 -1 2 3606.05 751.762 1
-13 -1 -2 3150.3 814.769 9
-1 13 2 2423.82 730.086 8
1 13 2 2724.12 755.698 8
-13 1 2 3218.27 773.643 1
13 1 -2 2390.56 634.808 3
13 -1 -2 3076.35 792.163 3
-1 13 -2 3367.56 752.705 7
1 13 -2 2759.78 768.553 7
-1 13 3 617.785 408.006 7
1 13 3 1185.41 558.718 7
13 1 3 1013.58 334.129 6
13 1 -3 630.779 254.329 6
13 -1 -3 601.862 305.733 6
-13 1 -3 748.888 251.169 10
13 -1 3 1526.8 557.467 2
13 1 3 1197.87 543.328 2
1 -13 -3 538.267 411.09 9
-1 -13 -3 404.209 364.836 9
-13 -1 -3 805.998 399.333 9
-1 13 3 1143.67 525.357 8
1 13 3 550.414 536.612 8
-13 -1 3 313.745 333.357 1
13 1 -3 513.406 404.319 3
-13 1 3 1807.17 686.517 1
13 -1 -3 303.803 361.753 3
-1 13 -3 833.164 472.786 7
1 13 -3 918.502 307.229 7
13 -1 4 -477.579 282.904 5
13 1 -4 -54.2534 203.979 6
13 -1 -4 38.9164 220.074 6
-1 -13 -4 91.7943 442.506 9
13 -1 4 394.035 422.94 2
13 1 4 110.729 357.671 2
1 -13 -4 15.9875 414.93 9
-1 13 4 200.155 390.813 8
1 13 4 -346.744 496.811 8
-13 -1 4 -584.246 519.359 1
13 1 -4 45.7083 350.301 3
13 -1 -4 279.289 446.923 3
-1 13 -4 -215.56 312.792 7
-13 1 4 -13.6883 401.576 1
1 13 -4 88.5294 323.38 7
-13 1 5 523.314 477.705 1
13 1 -5 186.585 179.807 6
13 -1 -5 174.004 263.11 6
13 1 5 423.833 322.456 5
1 -13 -5 -95.4794 366.491 9
-1 -13 -5 114.612 309.922 9
13 -1 5 51.1028 413.254 2
13 1 5 536.469 467.543 2
-1 13 5 191.192 326.874 8
1 13 5 197.239 450.438 8
1 -13 5 -251.673 271.12 5
13 1 -5 826.726 579.615 3
13 -1 -5 -715.612 440.414 3
-13 -1 5 684.289 434.287 1
-1 13 -5 199.776 372.037 7
1 13 -5 82.8633 424.8 7
13 -1 6 675.965 317.494 5
-13 -1 6 1136.2 612.83 1
-13 1 6 1656.14 696.378 1
13 1 -6 922.37 354.358 6
13 -1 -6 1204.15 382.295 6
13 1 6 1217.39 442.516 5
1 -13 -6 1280.65 577.991 9
-1 -13 -6 1980.35 766.235 9
-1 13 6 1076.46 670.963 8
1 13 6 525.079 615.33 8
1 -13 6 1649.94 523.2 5
13 1 -6 998.932 575.986 3
13 -1 -6 1797.43 691.631 3
-1 13 -6 1375.97 661.327 7
1 13 -6 1031.73 542.167 7
13 1 7 174.616 285.695 5
13 1 -7 183.769 290.403 6
13 -1 -7 31.8882 189.986 6
13 -1 7 -67.6828 225.916 5
-1 -13 -7 27.1799 273.837 9
-1 13 7 -833.708 597.855 8
1 -13 7 -121.378 284.325 5
-1 -13 7 400.685 338.341 5
13 1 -7 124.84 551.747 3
13 -1 -7 -277.993 638.864 3
-1 13 -7 -234.651 396.254 7
1 13 -7 421.569 395.17 7
13 1 8 66.6725 275.357 5
-1 13 8 514.318 312.769 4
13 -1 8 468.668 336.929 5
1 -13 8 -122.61 337.817 5
-1 -13 8 -4.44842 333.598 5
13 1 9 141.679 249.656 5
-13 1 9 133.64 250.455 4
13 -1 9 -604.167 288.391 5
-1 13 9 106.681 213.643 4
1 -13 9 -197.353 286.453 5
-1 -13 9 503.668 301.128 5
13 1 10 231.113 348.303 5
-13 1 10 513.954 292.003 4
13 -1 10 7.25052 221.735 5
-1 13 10 266.121 246.069 4
1 -13 10 61.0325 260.478 5
-1 -13 10 172.195 280.79 5
-13 1 11 -62.2436 253.788 4
-1 13 11 -20.2441 173.446 4
13 -1 11 -36.8281 249.738 5
1 -13 11 72.5485 259.728 5
-1 -13 11 -59.019 255.814 5
-13 1 12 75.7687 169.435 4
1 -13 12 411.852 265.528 5
-1 -13 12 -2.23271 208.39 5
-13 1 13 -334.028 153.61 4
1 -13 13 52.7739 189.267 5
-1 -13 13 -112.666 175.488 5
2 13 0 -182.386 298.202 7
13 -2 0 -36.4507 288.928 3
13 2 0 -297.594 292.649 6
13 -2 0 22.5182 231.203 6
13 2 0 321.369 355.832 2
13 -2 0 -239.295 454.85 2
-13 2 0 117.243 210.349 10
2 -13 0 -205.424 300.998 9
-2 -13 0 -38.98 352.506 9
-13 -2 0 -484.88 455.175 9
-13 -2 0 -191.663 354.286 1
-13 2 0 89.5514 247.381 1
-2 13 0 -200.508 312.477 7
2 13 -1 1791.47 580.249 7
2 13 1 2083.86 634.172 7
-13 2 1 2529.46 572.997 10
13 2 1 2434.02 464.352 6
13 2 -1 2190.61 470.698 6
13 -2 1 2237.81 447.742 6
13 -2 -1 2563.2 466.075 6
13 2 -1 2012.1 640.412 2
13 -2 -1 2336.43 810.029 2
13 -2 1 2427.13 714.556 2
13 2 1 1844.21 624.121 2
-13 -2 -1 2602.99 634.999 1
-13 -2 1 2286.75 645.167 1
2 -13 -1 3021.28 760.27 9
2 -13 1 1995.88 569.641 9
-2 -13 -1 2973.93 792.505 9
-2 -13 1 2644.46 645.782 9
-13 -2 -1 2323.24 664.893 9
-2 13 1 1798.85 608.497 8
2 13 1 2478.05 668.918 8
-13 2 1 2006.23 626.594 1
-13 2 -1 2740.48 562.649 10
13 2 -1 1242.12 467.325 3
-2 13 -1 2178.21 702.588 7
13 -2 -1 2532.13 620.485 3
-2 13 1 2705.91 685.965 7
2 13 -2 2955.96 712.527 7
-2 13 2 3267.61 757.663 7
2 13 2 3254.81 867.563 7
-13 2 2 2910.44 604.625 10
13 2 2 4090.03 901.707 2
-13 2 -2 3135.06 595.2 10
13 2 2 2801.19 514.704 6
13 2 -2 3283.48 590.37 6
13 -2 2 2484.46 491.359 6
13 -2 -2 3409.03 568.466 6
13 -2 2 2638.85 739.726 2
2 -13 -2 3251.54 782.212 9
-2 -13 -2 3090.18 755.656 9
-2 -13 2 3280.49 678.406 9
-13 -2 2 2635 679.134 1
-2 13 2 2437.67 680.912 8
2 13 2 3066.8 825.313 8
-13 -2 -2 2356.63 663.228 9
-13 2 2 2465.66 652.682 1
13 2 -2 3144.58 721.118 3
13 -2 -2 2935.16 756.833 3
-2 13 -2 2732.08 793.16 7
-2 13 3 3301.97 741.477 7
2 13 3 3548.81 854.136 7
13 -2 -3 4369.41 639.184 6
13 2 3 3396.44 564.222 6
13 2 -3 3547.86 605.918 6
-13 2 -3 3408.59 592.388 10
13 -2 3 5064.11 1004.34 2
13 2 3 5403.87 1036.25 2
2 -13 -3 3869.56 874.287 9
-2 -13 -3 3649.95 848.062 9
-13 -2 -3 3128.28 780.943 9
-13 -2 3 3965.82 831.383 1
-2 13 3 2852 614.435 8
2 13 3 2997.67 772.509 8
13 2 -3 3079.19 729.949 3
13 -2 -3 3250.34 815.073 3
-13 2 3 4453.78 911.658 1
-2 13 -3 2728.52 713.21 7
2 13 -3 3667.23 837.9 7
-13 2 4 1960.87 638.827 1
-2 -13 -4 2265.88 759.236 9
13 2 -4 1321.54 401.667 6
13 -2 -4 2457.99 509.895 6
-13 2 -4 1610.3 382.929 10
13 -2 4 1404.98 555.793 2
13 2 4 1955.74 704.58 2
2 -13 -4 2504.14 820.554 9
-13 -2 -4 1265.61 466.227 9
-2 13 4 2236.3 658.573 8
2 13 4 1432.6 669.714 8
-13 -2 4 2061.7 709.982 1
13 2 -4 1836.9 696.698 3
2 -13 4 2449.24 561.124 5
13 -2 -4 1625.06 645.098 3
-2 13 -4 1341.66 562.756 7
2 13 -4 2053.07 627.527 7
-13 2 5 -69.9858 432.18 1
13 2 -5 242.134 287.115 6
13 -2 -5 270.942 214.26 6
2 -13 -5 -132.458 322.413 9
-2 -13 -5 1189.88 678.158 9
13 -2 5 129.762 475.743 2
13 2 5 -374.806 474.744 2
-2 13 5 -55.0347 372.5 8
2 13 5 32.3437 385.674 8
13 -2 5 121.457 201.907 5
2 -13 5 295.803 285.104 5
13 2 -5 -236.556 491.204 3
13 -2 -5 -271.209 366.519 3
-13 -2 5 158.965 358.121 1
-2 13 -5 341.525 344.69 7
2 13 -5 -320.019 353.547 7
-13 -2 6 282.33 380.581 1
13 2 -6 231.212 239.106 6
13 -2 -6 66.2347 202.198 6
13 -2 6 -49.9918 269.779 5
2 -13 -6 154.335 458.062 9
-2 -13 -6 -87.4589 465.377 9
-2 13 6 -281.021 544.286 8
2 13 6 810.642 561.131 8
2 -13 6 361.568 286.371 5
13 2 -6 327.369 376.52 3
13 -2 -6 19.3356 368.071 3
-2 13 -6 636.687 559.379 7
2 13 -6 -184.315 288.59 7
13 2 7 1028.79 422.921 5
13 2 -7 602.253 226.723 6
13 -2 -7 493.032 328.346 6
2 -13 7 399.691 292.183 5
13 -2 7 68.9077 229.812 5
-2 -13 7 445.682 373.627 5
2 13 -7 -231.577 355.404 7
13 -2 8 609.511 377.249 5
-13 2 8 442.03 236.4 4
-2 13 8 346.777 320.152 4
13 2 8 -9.02389 240.494 5
2 -13 -8 394.568 246.886 6
2 -13 8 116.791 260.52 5
-2 -13 8 -434.135 449.218 5
-13 2 9 733.615 331.985 4
-2 13 9 386.952 273.143 4
13 -2 9 368.903 310.506 5
2 -13 9 705.03 412.905 5
-2 -13 9 167.237 322.918 5
-13 2 10 182.433 226.326 4
13 -2 10 35.742 296.198 5
-2 13 10 -74.4638 243.515 4
2 -13 10 -143.032 263.582 5
-2 -13 10 754.946 435.368 5
-13 2 11 -351.659 306.852 4
-2 13 11 266.122 204.975 4
13 -2 11 5.65584 246.211 5
2 -13 11 -111.457 297.984 5
-2 -13 11 -326.777 346.188 5
-13 2 12 -212.358 232.704 4
-2 13 12 64.7406 153.693 4
13 -2 12 -32.6135 206.743 5
2 -13 12 43.2587 239.63 5
-2 -13 12 -11.6335 217.345 5
-13 2 13 174.083 164.36 4
2 -13 13 245.955 209.694 5
-2 -13 13 -35.5467 174.404 5
13 3 0 8896.13 892.764 6
13 -3 0 9249.28 894.749 6
13 3 0 10842.7 1434.62 2
13 -3 0 10785.4 1506.07 2
-13 3 0 9302.13 1007.88 10
3 -13 0 10405.3 1286.92 9
-3 -13 0 9919.42 1298.09 9
-13 -3 0 9311.19 1283.63 9
13 -3 0 9210.23 1233.41 3
-13 -3 0 9003.7 1190.34 1
-3 13 0 10648.8 1382.42 7
3 13 0 8588.68 1232.72 7
13 -3 -1 2168.56 671.746 3
3 13 -1 2216.08 708.043 7
3 13 1 2086.67 673.908 7
13 -3 1 1823.43 556.663 3
13 3 1 1539.95 399.003 6
13 3 -1 2201.05 506.489 6
13 -3 1 1490.04 388.299 6
13 -3 -1 1554.75 391.038 6
13 3 -1 1459.57 682.946 2
13 -3 -1 1635.75 598.214 2
-13 -3 -1 2888.63 799.329 1
13 -3 1 2392.48 765.722 2
13 3 1 1723.08 645.47 2
-13 3 1 2103.99 496.621 10
-13 3 -1 1429.41 407.661 10
-13 -3 1 2993.71 744.005 1
3 -13 -1 1565.2 513.032 9
3 -13 1 1991.77 593.215 9
-3 -13 -1 2701.2 752.416 9
-3 -13 1 2081.92 658.742 9
-13 -3 -1 2400.71 772.302 9
-13 -3 1 2044.94 625.542 9
-3 13 1 1551.64 578.099 8
3 13 1 1811.01 635.695 8
-13 3 1 1966.96 589.746 1
-3 13 -1 1368.46 562.797 7
-3 13 1 1667.22 598.109 7
-3 13 2 77.3681 339.336 7
3 13 -2 489.824 364.391 7
3 13 2 204.614 296.519 7
13 3 2 425.044 204.289 6
13 3 -2 322.896 276.302 6
13 -3 2 313.518 246.456 6
13 -3 -2 303.399 234.358 6
13 -3 2 443.498 483.746 2
-13 3 2 431.41 300.41 10
-13 3 -2 763.32 352.82 10
3 -13 -2 756.466 495.571 9
-13 -3 2 285.131 300.055 1
-3 -13 -2 340.182 394.654 9
-3 -13 2 276.039 301.664 9
-13 -3 -2 -100.345 429.43 9
-3 13 2 262.337 395.174 8
3 13 2 -15.7337 323.952 8
13 3 2 827.222 439.347 2
13 3 -2 553.953 466.826 3
-3 13 -2 236.441 291.859 7
-13 3 2 316.797 240.484 1
13 -3 -2 93.7606 282.335 3
3 13 -3 -29.6313 345.153 7
-13 3 3 -476.819 444.603 1
-13 3 3 144.61 221.932 10
3 13 3 -146.361 396.509 8
13 3 3 11.7256 171.241 6
13 3 -3 503.45 319.627 6
13 -3 -3 -40.6281 172.364 6
-13 3 -3 45.4302 182.148 10
13 -3 3 112.283 296.63 2
13 3 3 32.2335 405.174 2
3 -13 -3 -108 301.077 9
-3 -13 -3 737.773 500.338 9
-13 -3 -3 744.696 428.249 9
-13 -3 3 198.061 413.917 1
-3 13 3 417.769 377.549 8
13 3 -3 183.954 305.323 3
13 -3 -3 -229.896 455.624 3
-3 13 -3 -391.516 292.911 7
3 13 -4 661.642 384.594 7
-13 3 4 639.996 456.136 1
13 3 4 983.309 339.01 6
13 3 -4 842.074 374.372 6
13 -3 -4 1495.86 422.281 6
13 -3 4 2220.98 742.193 2
13 3 4 525.956 411.491 2
3 -13 -4 1575.1 646.245 9
-3 -13 -4 1006.29 604.211 9
-13 -3 -4 1442.03 573.621 9
-3 13 4 916.303 459.948 8
3 13 4 731.186 521.665 8
-13 -3 4 1053.71 564.429 1
-13 3 -4 865.442 327.858 10
3 -13 4 694.331 329.78 5
13 3 -4 860.387 516.014 3
13 -3 -4 294.496 366.143 3
-3 13 -4 1428.97 581.78 7
3 13 -5 962.991 429.16 7
13 -3 5 126.962 314.507 5
-13 3 -5 502.367 257.014 10
13 3 -5 678.142 298.626 6
-13 3 5 1313.7 597.692 1
13 -3 -5 436.127 307.421 6
3 -13 -5 1035.24 585.679 9
-3 -13 -5 1363.97 624.221 9
13 -3 5 721.599 386.584 2
13 3 5 208.937 415.467 2
-3 13 5 606.725 479.292 8
3 13 5 495.759 491.5 8
3 -13 5 793.483 350.273 5
13 3 -5 1169.44 637.039 3
-13 -3 5 1002.4 615.618 1
-13 3 -5 434.251 514.155 7
13 -3 -5 -1156.49 634.696 3
-3 13 -5 1.74224 373.415 7
3 13 -6 745.951 324.541 7
13 3 -6 313.2 281.018 6
13 -3 -6 85.6881 214.266 6
-13 3 6 -1313.41 588.894 1
13 -3 6 -0.88584 214.294 5
3 -13 -6 -324.721 420.446 9
-3 -13 -6 -480.386 379.15 9
-3 13 6 62.7893 346.819 8
3 13 6 312.621 517.021 8
3 -13 6 127.099 243.732 5
13 3 -6 648.575 630.841 3
-13 3 -6 -221.257 428.815 7
13 -3 -6 428.468 344.553 3
-3 13 -6 -119.834 594.676 7
-13 -3 6 1707.84 769.473 1
13 -3 7 271.735 217.489 5
13 -3 -7 418.02 292.596 6
3 -13 -7 363.678 275.962 6
3 -13 7 50.7155 296.97 5
-3 -13 7 -382.9 365.801 5
-13 3 8 -110.283 252.361 4
13 -3 -8 -698.461 299.965 6
-3 13 8 269.674 307.312 4
3 -13 -8 -257.077 316.159 6
3 -13 8 39.6172 260.047 5
13 -3 8 -261.107 264.929 5
-13 3 9 -104.992 230.927 4
-3 13 9 249.746 245.996 4
13 -3 9 55.4312 250.78 5
3 -13 9 253.145 276.138 5
-3 -13 9 328.983 310.134 5
-13 3 10 560.871 302.602 4
13 -3 10 373.518 297.866 5
3 -13 10 -92.0985 241.501 5
-3 -13 10 885.802 379.354 5
-13 3 11 244.357 264.592 4
-3 13 11 428.062 235.448 4
13 -3 11 758.393 401.663 5
3 -13 11 296.982 291.507 5
-3 -13 11 -6.01142 215.288 5
13 -3 12 207.966 253.722 5
-3 13 12 87.8945 174.393 4
3 -13 12 -283.928 277.004 5
-3 -13 12 -123.873 208.104 5
-13 3 13 178.201 140.175 4
3 -13 13 -234.44 209.157 5
-3 -13 13 29.8845 176.452 5
4 13 0 -513.248 294.506 7
13 -4 0 -194.097 293.842 3
13 4 0 80.2712 181.54 6
13 -4 0 5.67696 200.393 6
13 4 0 211.19 351.989 2
13 -4 0 -433.614 472.64 2
-13 -4 0 1321.23 569.753 1
-13 4 0 -157.62 219.318 10
4 -13 0 232.597 313.639 9
-4 -13 0 1030.23 606.349 9
-13 -4 0 -138.231 349.406 9
-4 13 0 -30.5397 306.548 8
4 13 0 503.394 319.786 8
-13 4 0 209.357 351.979 7
-4 13 0 -95.8976 304.566 7
4 13 -1 2771.24 741.536 7
4 13 1 2713.53 709.929 7
13 -4 -1 1843.82 581.808 3
13 -4 1 1969.79 641.987 3
-13 4 1 1509.82 443.311 10
13 4 1 2319.02 482.572 6
13 4 -1 2051.51 468.36 6
13 -4 1 1922.25 422.244 6
13 -4 -1 2126.4 475.846 6
-13 4 -1 2811.05 579.569 10
13 4 -1 1861.48 639.537 2
13 -4 -1 1711.82 557.382 2
13 -4 1 2477.45 787.138 2
13 4 1 2157.02 676.531 2
-13 -4 1 2495.98 742.161 1
4 -13 -1 2151.77 606.169 9
-4 -13 -1 2052.59 663.966 9
-4 -13 1 2389.28 612.864 9
-13 -4 -1 2845.92 734.233 9
-13 -4 1 2033.46 681.972 9
-4 13 1 1781.06 771.58 8
4 13 1 981.252 388.764 8
-13 4 -1 2754.02 817.714 7
-4 13 -1 1972.05 603.297 7
-4 13 1 2335.99 577.166 7
4 13 -2 626.398 406.618 7
4 13 2 137.097 483.649 7
-13 4 -2 772.046 361.611 10
-13 4 2 541.787 229.459 1
13 4 2 799.943 515.852 2
13 4 2 809.904 313.641 6
13 4 -2 1108.38 326.117 6
13 -4 2 997.351 338.216 6
13 -4 -2 806.259 330.592 6
-13 4 2 1011.96 409.427 10
-13 -4 2 880.391 430.3 1
4 -13 -2 420.331 387.21 9
-4 -13 -2 1606.12 592.37 9
-4 -13 2 1267.94 593.355 9
-13 -4 -2 1212.02 592.359 9
-13 -4 2 1184.92 583.267 9
-4 13 2 742.443 434.889 8
4 13 2 731.797 533.264 8
13 -4 2 1068.85 521.637 2
-13 4 -2 1150 584.781 7
-4 13 -2 967.852 584.743 7
-4 13 2 1277.28 484.323 7
13 -4 -2 659.903 376.176 3
4 13 -3 1089.62 483.287 7
13 4 3 1537.96 409.88 6
-13 4 3 1581.45 600.191 1
-13 4 3 1792.77 454.232 10
13 4 -3 1699 421.372 6
13 -4 -3 1220.89 359.692 6
-13 4 -3 1396.59 440.566 10
13 -4 3 1556.18 692.954 2
13 4 3 927.776 481.408 2
4 -13 -3 1654.7 551.83 9
-4 -13 -3 1742.78 655.295 9
-13 -4 3 1639.05 650.681 1
-13 -4 -3 1175.32 546 9
-4 13 3 474.823 322.458 8
4 13 3 1192.96 479.196 8
13 4 -3 1320 515.099 3
-13 4 -3 2011.62 812.349 7
-4 13 -3 2584.91 774.689 7
13 -4 -3 517.708 361.967 3
4 13 -4 -66.9717 299.091 7
13 4 4 212.521 199.682 6
-13 4 -4 226.915 183.42 10
13 4 -4 103.733 203.847 6
-13 4 4 -37.9852 349.733 1
13 -4 -4 504.411 250.072 6
-13 4 4 522.33 226.093 10
4 -13 -4 83.4817 301.876 9
13 -4 4 -41.9555 406.262 2
13 4 4 -476.295 427.985 2
-4 -13 -4 -202.54 292.351 9
-13 -4 -4 671.584 477.642 9
-13 -4 4 37.334 319.378 1
-4 13 4 770.418 580.698 8
4 13 4 -313.448 443.251 8
4 -13 4 349.969 307.332 5
13 4 -4 507.059 425.115 3
-13 4 -4 175.209 445.565 7
-4 13 -4 195.168 391.828 7
13 -4 -4 373.335 375.129 3
4 13 -5 233.114 311.75 7
13 4 -5 249.632 200.218 6
13 -4 -5 -189.849 230.893 6
-13 4 5 476.4 314.542 1
-13 4 -5 281.815 224.117 10
4 -13 -5 -415.083 638.328 9
-4 -13 -5 -361.168 373.503 9
13 -4 5 -494.908 555.216 2
13 4 5 540.859 464.122 2
-4 13 5 183.754 502.475 8
4 13 5 -114.518 445.688 8
4 -13 5 261.287 220.137 5
13 4 -5 -526.804 405.053 3
-13 -4 5 -825.045 525.494 1
-13 4 -5 -279.811 548.902 7
13 -4 -5 -735.698 607.734 3
-4 13 -5 96.0354 367.337 7
4 13 -6 -129.282 304.148 7
13 4 -6 142.181 259.706 6
13 -4 -6 -684.058 311.951 6
4 -13 -6 -105.546 238.879 6
-13 4 6 483.567 431.055 1
13 -4 6 215.651 264.055 5
4 -13 -6 214.204 404.121 9
-4 -13 -6 -159.628 357.824 9
4 -13 6 -238.132 332.074 5
-4 13 6 -1330.61 635.658 8
4 13 6 -772.871 520.065 8
13 4 -6 -225.618 476.463 3
-13 4 -6 294.52 439.157 7
13 -4 -6 -169.489 491.243 3
-13 -4 6 93.7367 373.795 1
-4 13 -6 -134.536 341.571 7
13 -4 -7 273.601 265.57 6
-13 4 7 -513.953 307.046 4
4 -13 -7 -111.567 233.645 6
13 -4 7 410.841 313.353 5
4 -13 7 -120.78 257.012 5
13 -4 -8 14.101 209.591 6
-13 4 8 189.877 203.166 4
4 -13 -8 -30.988 227.456 6
-4 13 8 385.49 373.81 4
13 -4 8 519.053 284.874 5
4 -13 8 348.996 277.231 5
-4 -13 8 800.085 406.228 5
13 -4 9 380.739 290.464 5
-13 4 9 392.89 270.342 4
-4 13 9 370.45 309.353 4
4 -13 9 159.518 257.035 5
-4 -13 9 351.742 343.92 5
-13 4 10 479.052 318.368 4
-4 13 10 -446.25 285.409 4
13 -4 10 87.8772 210.752 5
4 -13 10 215.535 243.819 5
-4 -13 10 235.496 271.035 5
-13 4 11 -316.785 235.139 4
-4 13 11 -72.9243 179.669 4
13 -4 11 244.565 295.815 5
4 -13 11 344.09 262.026 5
-4 -13 11 25.6595 230.793 5
-13 4 12 -294.579 244.743 4
-4 13 12 255.314 190.2 4
13 -4 12 -177.695 225.202 5
4 -13 12 -106.515 230.144 5
-4 -13 12 -213.752 199.072 5
-13 4 13 -165.674 129.435 4
-4 13 13 55.8222 150.961 4
4 -13 13 -219.234 206.011 5
-4 -13 13 56.3541 161.336 5
5 13 0 1893.73 681.7 7
13 -5 0 1244.83 547.152 3
13 5 0 2710.77 540.114 6
13 -5 0 2183.23 453.519 6
-13 -5 0 3506.1 916.525 1
13 5 0 2823.62 783.249 2
13 -5 0 1539.75 547.135 2
-13 5 0 2224.81 466.197 10
5 -13 0 1868.58 568.945 9
-5 -13 0 1880.67 695.673 9
-13 -5 0 2486.38 770.559 9
-5 13 0 2222.97 747.511 8
5 13 0 1582.49 691.024 8
-13 5 0 1171.75 487.17 7
-5 13 0 1888.54 570.014 7
5 13 -1 1487.3 613.658 7
5 13 1 1350.04 499.714 7
13 -5 -1 1639.01 615.753 3
13 -5 1 1187.2 431.426 3
13 5 1 1644.36 414.696 6
13 5 -1 2086.93 498.239 6
-13 -5 1 1942.41 725.219 9
5 13 1 824.492 378.525 8
13 -5 1 2249.16 456.519 6
13 -5 -1 1616.84 409.14 6
13 5 -1 2223.93 719.309 2
13 -5 -1 1000.67 523.626 2
-13 5 -1 1835.55 494.095 10
13 -5 1 1420.39 478.045 2
13 5 1 998.291 452.947 2
-13 -5 1 1253.87 631.869 1
-13 5 1 1092.91 435.05 10
5 -13 -1 2291.02 665.323 9
-5 -13 -1 2791.15 750.642 9
-5 -13 1 1671.48 586.211 9
-13 -5 -1 2257.34 630.972 9
-5 13 1 1188.35 564.696 8
-13 5 -1 1763.38 633.883 7
-5 13 -1 2059.75 640.84 7
-5 13 1 1285.87 543.618 7
5 13 -2 325.341 337.171 7
13 -5 -2 484.921 470.611 3
13 -5 2 123.715 304.644 3
13 5 2 604.907 279.861 6
-13 5 2 -213.152 318.599 10
13 5 -2 473.597 340.754 6
-13 5 -2 -303.481 299.718 10
13 -5 2 28.112 198.212 6
13 -5 -2 287.705 276.104 6
13 -5 -2 649.581 497.814 2
13 -5 2 -373.745 380.368 2
13 5 2 -100.585 332.783 2
-13 -5 2 476.617 389.673 1
5 -13 -2 -95.6853 367.42 9
-5 -13 -2 262.515 419.612 9
-5 -13 2 114.89 411.371 9
-13 -5 -2 217.396 413.515 9
-13 -5 2 415.479 411.876 9
-5 13 2 554.216 470.321 8
5 13 2 681.43 468.256 8
-13 5 -2 807.442 377.705 7
-5 13 -2 -278.939 433.854 7
-5 13 2 259.49 294.267 7
13 -5 -3 2263.23 793.058 3
5 13 -3 1770.85 597.996 7
13 5 3 2186.33 486.172 6
13 5 -3 1835.11 474.626 6
13 -5 -3 1349.12 394.334 6
-5 13 3 1730.75 635.097 8
-13 5 3 2018.17 464.123 10
-13 5 -3 1793.53 489.855 10
13 -5 3 781.081 343.34 2
13 5 3 1603.43 527.697 2
5 -13 -3 1455.89 541.343 9
-5 -13 -3 1879.88 696.389 9
-13 -5 3 2235.85 682.637 1
-13 -5 -3 948.677 393.987 9
5 13 3 996.038 499.658 8
13 5 -3 1325.51 546.195 3
-13 5 -3 1072.6 640.144 7
-5 13 -3 2002.87 660.416 7
5 13 -4 2688.79 765.289 7
13 5 4 3081.09 555.866 6
5 -13 -4 2952.23 852.857 3
13 5 -4 3427.08 637.444 6
13 -5 -4 3589.3 591.918 6
-13 5 4 3293.14 778.735 1
-13 5 4 3554.94 685.737 10
-13 5 -4 3087.12 590.209 10
5 -13 -4 3731.55 915.457 9
13 -5 4 3704.82 883.66 2
13 5 4 3613.29 861.187 2
-5 -13 -4 5012.45 1051.33 9
-13 -5 -4 3055.64 826.707 9
-13 -5 4 2879.6 778.516 1
-5 13 4 3118.72 944.905 8
5 13 4 2972.66 871.563 8
13 5 -4 3040.86 869.149 3
-13 5 -4 3353.93 1049.51 7
-5 13 -4 4141.13 1074.7 7
13 -5 -4 4162.16 1038.34 3
5 13 -5 1297.44 574.107 7
5 -13 -5 1455.79 608.517 3
13 5 -5 2471.38 538.588 6
-13 5 -5 1618.89 456.76 10
13 -5 -5 1925.58 480.741 6
5 -13 -5 2397.11 523.86 6
-13 5 5 1943.65 707.106 1
5 -13 -5 1912.21 659.034 9
-5 -13 -5 1827.77 686.399 9
13 -5 5 3442.82 911.151 2
13 5 5 2543.28 654.62 2
-13 -5 -5 734.78 386.994 9
5 -13 5 2019.29 511.62 5
-5 13 5 1380.23 648.207 8
5 13 5 292.384 359.117 8
-13 -5 5 2718.17 800.019 1
13 5 -5 1917.57 680.056 3
-13 5 -5 1717.13 716.08 7
-5 13 -5 1878.31 693.216 7
13 -5 -5 1875.12 657.787 3
5 13 -6 1068.07 542.425 7
13 5 -6 1540.54 438.428 6
13 -5 -6 1635.95 414.518 6
-13 5 6 1428.78 455.208 4
5 -13 -6 1766.99 433.1 6
13 -5 6 1121.74 421.279 5
5 -13 -6 1459.59 754.392 9
-13 5 6 587.566 271.113 1
-5 -13 -6 1276.21 603.423 9
5 -13 6 2046.73 545.86 5
-5 13 6 -67.8841 642.169 8
5 13 6 1122.28 602.883 8
13 5 -6 647.395 391.466 3
-13 5 -6 1877.3 822.751 7
-13 -5 6 854.342 474.087 1
-5 13 -6 1455.56 748.042 7
13 -5 -6 1813.65 551.717 3
13 -5 -7 2361.12 498.852 6
-13 5 7 2294.01 497.376 4
5 -13 -7 1841.55 477.673 6
13 -5 7 2049.96 484.992 5
5 -13 7 1821.79 502.078 5
13 -5 -8 403.456 274.607 6
-13 5 8 192.78 277.054 4
5 -13 -8 685.755 303.526 6
-5 13 8 526.985 333.434 4
13 -5 8 185.428 273.979 5
5 -13 8 202.21 304.499 5
-5 -13 8 582.581 344.702 5
-13 5 9 -129.502 245.064 4
-5 13 9 -24.3672 203.581 4
13 -5 9 -35.7527 212.509 5
5 -13 9 -40.6967 292.643 5
-5 -13 9 -92.1752 315.556 5
-13 5 10 -184.864 220.29 4
-5 13 10 262.865 234.613 4
13 -5 10 341.07 289.019 5
5 -13 10 421.522 321.508 5
-5 -13 10 -107.882 243.07 5
-13 5 11 -240.85 254.968 4
13 -5 11 338.637 269.52 5
-5 13 11 408.637 250.584 4
5 -13 11 317.609 298.392 5
-5 -13 11 -250.627 297.618 5
-13 5 12 -423.657 256.801 4
13 -5 12 -54.0139 170.437 5
-5 13 12 104.129 188.189 4
5 -13 12 -34.643 205.718 5
-5 -13 12 122.402 204.035 5
-13 5 13 -307.229 144.708 4
-5 13 13 68.725 108.119 4
5 -13 13 207.256 217.864 5
6 13 0 -744.725 517.991 7
13 -6 0 314.449 351.34 3
13 6 0 -78.3781 280.691 6
13 -6 0 -126.413 232.747 6
-13 -6 0 681.826 442.351 1
13 -6 0 197.724 482.04 2
13 6 0 -82.7803 330.134 2
-13 6 0 54.2794 219.463 10
6 -13 0 -559.765 394.004 9
-6 -13 0 72.3463 358.044 9
-13 -6 0 480.41 385.639 9
-6 13 0 -472.402 479.583 8
6 13 0 39.2588 326.135 8
-6 13 0 -256.806 480.533 7
6 13 -1 229.26 319.58 7
13 -6 -1 -447.508 515.316 3
13 -6 1 435.67 431.916 3
13 6 1 74.3296 218.318 6
13 6 -1 -271.151 246.086 6
-13 6 1 49.4729 262.963 10
13 -6 1 144.39 202.404 6
13 -6 -1 94.5512 229.381 6
13 6 -1 332.05 383.641 2
13 -6 -1 -306.361 458.162 2
-13 -6 1 394.877 460.724 1
13 -6 1 405.731 453.96 2
6 -13 1 -1205.31 393.136 6
13 6 1 629.668 419.593 2
-13 6 -1 286.702 266.386 10
6 -13 -1 -17.3596 292.61 9
-6 -13 -1 -152.681 320.04 9
-6 -13 1 580.37 463.25 9
-13 -6 -1 -434.312 465.595 9
-13 -6 1 -287.021 450.681 9
6 13 -1 854.97 485.505 8
-6 13 1 -147.883 392.28 8
6 13 1 -107.235 356.822 8
-13 6 -1 287.416 379.075 7
-6 13 -1 -63.637 465.481 7
-6 13 1 221.29 300.428 7
6 13 -2 267.94 316.763 7
13 -6 -2 1503.4 626.815 3
13 6 2 893.02 394.534 6
13 -6 2 828.992 445.895 3
13 6 -2 899.988 300.601 6
13 -6 2 796.641 330.215 6
13 -6 -2 945.087 342.909 6
13 6 -2 1593.96 586.104 2
13 -6 -2 387.017 327.566 2
-13 6 -2 1146.44 381.371 10
6 -13 2 375.877 246.972 6
-13 6 2 912.273 402.406 10
13 -6 2 608.779 349.388 2
13 6 2 862.744 564.52 2
-13 -6 2 1265.47 523.727 1
6 -13 -2 1082.68 400.557 9
-6 -13 -2 890.777 483.521 9
-6 -13 2 407.507 397.007 9
-13 -6 -2 1238.21 491.038 9
-13 -6 2 946.334 511.599 9
-6 13 2 570.098 433.392 8
6 13 2 417.752 427.525 8
-13 6 -2 346.348 378.46 7
-6 13 -2 688.988 440.886 7
6 13 -3 47.825 336.992 7
13 -6 -3 -17.4602 298.394 3
13 6 3 -27.2073 217.271 6
6 -13 -3 1092.3 614.077 3
13 6 -3 166.933 240.61 6
13 -6 -3 7.02935 211.402 6
6 -13 -3 80.5466 227.566 6
-13 6 3 -184.672 266.564 10
-13 6 -3 -119.934 214.085 10
13 -6 3 504.639 517.754 2
13 6 3 165.862 346.793 2
-13 -6 3 -169.822 455.753 1
-6 -13 -3 467.487 398.751 9
-13 -6 -3 360.796 390.162 9
-13 -6 3 -272.883 396.131 9
-6 13 3 -84.443 495.117 8
6 13 3 175.742 503.298 8
-13 6 -3 22.5232 345.684 7
-6 13 -3 -330.426 583.086 7
13 -6 -4 1.85515 482.319 3
6 13 -4 1180.48 552.869 7
13 6 4 -305.855 259.569 6
6 -13 -4 -235.008 444.031 3
13 6 -4 -218.93 201.815 6
13 -6 -4 -127.866 197.493 6
6 -13 -4 -200.738 290.948 6
-13 6 4 207.88 249.876 10
-13 6 -4 -541.241 318.015 10
6 -13 -4 111.747 346.199 9
13 -6 4 -92.7354 380.785 2
13 6 4 176.266 370.447 2
-6 -13 -4 -151.301 443.222 9
-13 -6 -4 -164.875 424.797 9
-13 -6 4 -93.2686 402.691 1
-6 13 4 -35.0101 384.493 8
6 13 4 -271.33 349.141 8
13 6 -4 -760.452 433.175 3
-13 6 -4 -551.561 515.035 7
-6 13 -4 368.582 421.142 7
6 13 -5 1548.02 710.702 7
6 -13 -5 504.796 283.294 3
13 6 -5 -422.024 339.366 6
-13 6 5 -188.032 255.409 10
-13 6 -5 56.4471 230.663 10
13 -6 -5 -305.274 269.282 6
-13 6 5 76.0355 215.631 4
6 -13 -5 -108.118 243.357 6
6 -13 -5 305.52 513.76 9
-6 -13 -5 -177.572 477.178 9
-13 6 5 -1091.34 535.505 1
-13 -6 -5 -129.396 278.838 9
6 -13 5 349.234 283.728 5
-6 13 5 -134.95 334.717 8
6 13 5 -528.848 505.927 8
-13 -6 5 -368.746 498.051 1
13 6 -5 -617.449 450.735 3
-13 6 -5 33.8462 482.441 7
-6 13 -5 209.264 495.433 7
13 -6 -5 204.27 439.41 3
13 -6 -6 -329.505 318.13 6
-13 6 6 204.073 246.547 4
-13 6 -6 214.064 235.756 10
6 -13 -6 -112.401 295.033 6
6 -13 6 -103.474 228.603 5
13 -6 -7 -12.4479 211.498 6
-13 6 7 -75.3236 240.176 4
6 -13 -7 162.377 268.642 6
13 -6 7 -394.121 245.15 5
6 -13 7 -112.77 259.88 5
13 -6 -8 618.678 308.455 6
-13 6 8 171.385 281.994 4
6 -13 -8 286.538 252.078 6
-6 13 8 545.138 345.12 4
13 -6 8 587.333 364.583 5
6 -13 8 598.452 362.988 5
-6 -13 8 897.057 439.896 5
-13 6 9 -347.844 250.553 4
-6 13 9 253.497 320.204 4
13 -6 9 92.01 269.349 5
6 -13 9 195.889 319.101 5
-6 -13 9 29.224 304.259 5
13 -6 10 404.495 287.811 5
-13 6 10 405.343 278.624 4
-6 13 10 94.6877 278.654 4
6 -13 10 516.202 357.114 5
-6 -13 10 -63.8463 242.212 5
13 -6 11 126.4 218.181 5
-13 6 11 66.9355 183.358 4
-6 13 11 148.773 210.005 4
6 -13 11 -197.952 208.881 5
-6 -13 11 66.6297 240.788 5
-13 6 12 55.4242 174.205 4
-6 13 12 0.96778 160.659 4
13 -6 12 320.44 248.584 5
6 -13 12 6.05597 170.576 5
-6 -13 12 121.824 169.13 5
6 -13 13 21.0799 143.789 5
13 7 0 7725.83 907.938 6
13 -7 0 8168.39 900.356 6
7 -13 0 7343.05 892.814 6
-13 -7 0 6840.11 1231.55 1
13 -7 0 5764.58 1044.45 2
13 7 0 6381.04 1059.57 2
-13 7 0 7819.06 942.827 10
13 -7 0 8275.58 1295.81 3
-7 -13 0 7424.89 1195.21 9
-13 -7 0 6476.84 1167.23 9
-7 13 0 4323.05 969.309 8
-7 13 0 6183.62 1100.83 7
13 -7 -1 2483.96 746.715 3
-13 7 1 2220.79 541.892 10
13 -7 1 1750.64 630.377 3
13 7 1 2198.51 510.874 6
13 7 -1 3071.13 585.097 6
13 -7 1 2462.42 497.281 6
13 -7 -1 1944.13 487.854 6
13 7 -1 1329.96 583.037 2
13 -7 -1 1819 642.435 2
7 -13 1 1744.67 435.335 6
7 -13 -1 2549.58 533.049 6
-13 -7 1 3637.43 942.826 1
13 -7 1 1928.04 613.346 2
13 7 1 1646.02 604.508 2
7 -13 -1 2673.3 708.395 9
-7 -13 -1 1234.87 549.21 9
-7 -13 1 1229.8 529.351 9
-13 -7 -1 2155.89 682.615 9
-13 -7 1 2305.92 716.339 9
-7 13 -1 1738.44 635.889 8
7 13 -1 55.1706 386.191 8
-7 13 1 273.652 315.609 8
7 13 1 409.885 342.652 8
-13 7 -1 2179.35 519.029 10
-13 7 -1 1322.68 562.31 7
-7 13 -1 1692.42 636.454 7
7 13 -2 568.083 400.552 7
13 -7 -2 -235.495 473.779 3
13 7 2 -29.7583 265.239 6
13 7 -2 29.3553 289.5 6
13 -7 2 -82.4165 459.692 3
-13 7 2 -80.9082 300.019 10
13 -7 2 169.34 226.408 6
13 -7 -2 -133.324 269.952 6
13 7 -2 395.138 440.533 2
13 -7 -2 -480.309 495.851 2
7 -13 2 -177.41 296.853 6
7 -13 -2 -1022.13 396.089 6
-13 7 -2 -66.3411 200.609 10
-13 -7 2 532.172 426.089 1
13 -7 2 -434.31 523.356 2
13 7 2 -443.122 477.796 2
-7 -13 -2 25.9554 428.493 9
-7 -13 2 250.691 350.131 9
-13 -7 -2 -334.357 539.297 9
-13 -7 2 -109.839 532.972 9
-7 13 2 1005.73 533.006 8
7 13 2 -314.289 351.781 8
-13 7 -2 79.0245 548.443 7
-7 13 -2 88.0805 391.158 7
7 13 -3 2748.26 835.721 7
13 -7 -3 4667.27 1063.26 3
13 7 3 3747.73 650.725 6
13 7 -3 4312.94 713.627 6
7 -13 -3 3748.76 938.27 3
-13 7 -3 2426.09 545.022 10
13 -7 -3 3832.25 642.476 6
13 7 -3 2646.98 781.095 2
13 -7 -3 2204.01 716.772 2
7 -13 -3 3703.22 659.457 6
-13 7 3 2957.46 601.546 10
13 -7 3 3186.19 789.454 2
13 7 3 3764.04 905.15 2
-13 -7 3 3953.64 1033.97 1
-7 -13 -3 4181.4 985.906 9
-13 -7 -3 3890.03 952.108 9
-13 -7 3 3827.2 936.505 9
-7 13 3 1516.28 573.15 8
7 13 3 2181.06 762.197 8
-13 7 -3 3322.51 851.374 7
-7 13 -3 3145.96 867.46 7
7 13 -4 4160.14 954.237 7
13 -7 -4 6007.72 1203.59 3
13 7 4 5375.21 735.515 6
13 7 -4 6770.92 870.237 6
13 -7 -4 5323.88 761.07 6
7 -13 -4 5745.52 833.086 6
7 -13 -4 3994.76 1047.58 3
-13 7 4 5531.25 804.905 10
-13 7 -4 4901.92 760.094 10
-7 -13 -4 5859.26 1156.81 9
13 -7 4 5024.15 1028.48 2
13 7 4 5323.17 1110.88 2
-13 -7 -4 4996.02 1052.3 9
-13 -7 4 4783.99 1090.32 1
-7 13 4 1386.92 684.749 8
7 13 4 3160.89 899.824 8
-13 7 -4 3937.98 1060.61 7
-7 13 -4 5571.84 1251.55 7
7 13 -5 5395.11 1074 7
13 7 5 7721.61 847.111 6
13 7 -5 9084.82 986.32 6
13 -7 -5 8137.79 925.228 6
7 -13 -5 8420.05 972.885 6
7 -13 -5 6230.07 1212.66 3
-13 7 -5 6662.96 878.339 10
-13 7 5 7961.18 940.119 10
-13 -7 -5 5335.37 1060.56 9
-13 -7 5 9409.75 1485.96 1
-13 7 5 8678.49 974.632 4
-13 7 -5 7726.03 1437.26 7
13 7 -6 5790.31 788.543 6
13 -7 -6 7277.18 873.967 6
7 -13 -6 6801.47 887.397 6
7 -13 6 6706.17 869.452 5
-13 7 -6 5501.08 773.654 10
-13 7 6 6882.65 851.445 4
13 -7 -7 1447.74 394.997 6
-13 7 7 1867.51 478.95 4
7 -13 -7 1818.3 456.615 6
13 -7 7 1690.89 436.648 5
7 -13 7 2114.19 521.689 5
13 -7 -8 -149.677 266.585 6
-13 7 8 607.055 291.7 4
7 -13 -8 -41.7485 281.954 6
-7 13 8 -57.7652 221.307 4
13 -7 8 327.305 304.999 5
7 -13 8 162.236 244.123 5
-7 -13 8 -106.268 336.446 5
-13 7 9 692.751 356.909 4
-7 13 9 336.251 291.133 4
13 -7 9 378.069 265.23 5
7 -13 9 206.09 260.24 5
-7 -13 9 328.559 305.635 5
-13 7 10 293.855 289.972 4
-7 13 10 -139.916 226.937 4
13 -7 10 393.903 323.079 5
7 -13 10 429.53 271.174 5
-7 -13 10 33.0753 237.644 5
13 -7 11 -98.5476 212.155 5
-13 7 11 -34.5486 164.27 4
-7 13 11 197.131 193.444 4
7 -13 11 266.875 259.018 5
-7 -13 11 146.705 216.641 5
-13 7 12 242.303 192.906 4
-7 13 12 211.376 199.021 4
7 -13 12 366.759 223.772 5
-7 -13 12 -319.187 231.942 5
13 -8 0 393.909 327.45 3
13 8 0 -141.512 282.543 6
13 -8 0 -247.687 222.443 6
-13 -8 0 476.961 331.96 1
8 -13 0 -32.2603 224.149 6
-13 8 0 106.933 232.52 10
-8 -13 0 -649.817 439.092 9
-13 -8 0 -503.012 501.379 9
-8 13 0 971.882 539.097 7
13 -8 -1 -361.395 476.782 3
13 8 1 -251.247 359.743 6
13 8 -1 -298.075 331.129 6
13 -8 1 530.378 429.641 3
13 -8 1 23.9875 187.066 6
13 -8 -1 90.9541 232.731 6
8 -13 1 -98.4009 300.053 6
8 -13 -1 -340.386 346.48 6
-13 -8 1 241.655 322.219 1
-13 8 1 64.673 242.415 10
-13 8 -1 -64.4938 292.641 10
-8 -13 -1 -169.524 394.109 9
-8 -13 1 235.867 394.976 9
-13 -8 -1 683.734 414.553 9
-13 -8 1 234.231 495.188 9
-13 8 -1 -1486.88 605.332 7
-8 13 -1 -1162.68 553.887 7
13 -8 -2 -193.248 366.696 3
13 8 2 141.328 204.222 6
13 8 -2 275.926 259.664 6
8 -13 -2 -259.775 317.949 3
13 -8 2 66.8864 179.837 6
13 -8 -2 -235.929 273.214 6
8 -13 2 -222.876 283.649 6
8 -13 -2 -93.1653 293.529 6
-8 -13 2 -642.074 484.785 1
-13 8 2 228.788 268.235 10
-13 8 -2 72.7925 218.824 10
-13 -8 2 1125.93 680.504 1
-8 -13 -2 137.391 308.312 9
-8 -13 2 -908.349 498.139 9
-13 -8 -2 175.749 328.521 9
-13 -8 2 -633.269 556.712 9
-13 8 -2 -1115.98 603.981 7
-8 13 -2 -612.604 518.634 7
13 -8 -3 3000.61 975.7 3
13 8 3 2016.74 477.029 6
13 8 -3 2733.29 603.857 6
8 -13 -3 1163.73 504.226 3
13 -8 -3 2118.08 494.786 6
8 -13 -3 2165.85 522.622 6
-13 8 3 1881.91 492.638 10
-13 8 -3 2311.92 517.999 10
-13 -8 3 1486.03 582.685 1
-8 -13 -3 1866.1 694.022 9
-13 -8 -3 2935.77 917.636 9
-13 -8 3 1959.55 783.804 9
-13 8 -3 1856.75 523.86 7
-8 13 -3 1738.99 774.14 7
13 -8 -4 3838.66 999.074 3
13 8 4 2680.25 565.484 6
13 8 -4 4021.86 691.69 6
8 -13 -4 3043.93 870.249 3
13 -8 -4 3069.2 585.581 6
8 -13 -4 2897.57 617.963 6
-13 8 4 3029.96 609.967 10
-13 8 -4 3036.57 602.689 10
-8 -13 -4 3484.8 968.19 9
-13 -8 -4 2724.22 814.51 9
-13 -8 4 2599.87 762.015 1
-13 8 -4 3536.3 1046.81 7
-8 13 -4 4204.75 1072.15 7
13 8 5 -378.678 297.841 6
13 8 -5 44.368 222.356 6
13 -8 -5 -170.693 268.298 6
-13 8 -5 -188.897 295.525 10
8 -13 -5 110.086 224.63 6
-13 8 5 -267.322 306.325 10
-13 8 5 0.81695 231.663 4
13 8 -6 366.305 305.722 6
13 -8 -6 658.189 340.05 6
8 -13 -6 290.161 273.205 6
-13 8 6 517.812 313.361 4
-13 8 -6 344.506 225.438 10
13 -8 -7 120.719 196.752 6
-13 8 7 537.011 308.518 4
8 -13 -7 699.102 307.162 6
8 -13 7 128.413 232.299 5
13 -8 -8 304.094 225.413 6
-13 8 8 -55.0017 228.566 4
8 -13 -8 59.6739 216.754 6
-8 13 8 231.233 248.119 4
13 -8 8 221.103 241.595 5
8 -13 8 -304.799 242.829 5
-8 -13 8 125.804 228.061 5
-13 8 9 -118.648 215.668 4
-8 13 9 472.766 266.046 4
13 -8 9 178.008 267.513 5
8 -13 9 300.29 283.531 5
-8 -13 9 -45.8785 258.972 5
-13 8 10 321.743 241.95 4
-8 13 10 124.286 203.817 4
13 -8 10 189.403 262.094 5
8 -13 10 494.552 342.632 5
-8 -13 10 355.445 269.049 5
-13 8 11 357.735 255.985 4
-8 13 11 87.3027 182.705 4
13 -8 11 195.872 175.884 5
8 -13 11 -57.4369 165.607 5
-8 -13 11 -111.714 198.363 5
-13 8 12 226.459 189.516 4
-8 13 12 -39.2652 167.365 4
13 -8 12 170.482 160.035 5
8 -13 12 207.958 172.314 5
9 13 0 1122.08 373.613 6
13 9 0 976.868 371.647 6
13 -9 0 1912.19 769.989 3
13 -9 0 998.924 368.168 6
-13 -9 0 1735.72 700.264 1
9 -13 0 2012.67 545.433 6
-13 9 0 854.976 334.388 10
-9 -13 0 469.192 274.095 9
-13 -9 0 779.865 366.472 9
9 13 -1 1900.85 490.31 6
13 -9 -1 195.335 368.088 3
13 9 1 1392.74 426.521 6
13 9 -1 1424.15 450.907 6
13 -9 1 1650.39 614.463 3
-13 9 -1 1289.59 433.294 10
13 -9 1 1027.9 367.34 6
13 -9 -1 1001.67 358.101 6
9 -13 1 1245.68 423.493 6
9 -13 -1 723.703 335.43 6
-13 -9 1 816.864 370.627 1
-13 9 1 814.641 334.23 10
-9 -13 -1 1308 582.747 9
-9 -13 1 1719.75 657.301 9
-13 -9 -1 1607.31 616.541 9
-13 -9 1 949.485 533.233 9
-9 13 -1 1165.36 500.866 7
9 13 -2 104.627 241.951 6
13 -9 -2 -82.0988 409.322 3
13 9 2 60.4624 217.975 6
13 9 -2 293.876 328.18 6
9 -13 -2 135.669 299.414 3
13 -9 2 196.502 217.232 6
13 -9 -2 254.486 259.428 6
9 -13 2 146.812 194.842 6
9 -13 -2 86.0414 246.927 6
-9 -13 2 -174.898 351.236 1
-13 9 2 405.47 350.244 10
-13 9 -2 158.499 296.13 10
-13 -9 2 1411.09 692.609 1
-9 -13 -2 -884.188 502.832 9
-9 -13 2 -751.434 550.063 9
-13 -9 -2 -1281.65 577.572 9
-13 -9 2 -271.349 390.473 9
-13 9 -2 178.185 315.424 7
-9 13 -2 1165.41 682.502 7
9 13 -3 -64.8473 195.886 6
13 9 3 326.324 247.38 6
13 9 -3 340.435 245.59 6
13 -9 -3 -104.871 252.709 6
9 -13 -3 -261.869 323.721 6
-13 9 3 -72.4639 266.917 10
-13 9 -3 -531.281 346.032 10
-13 -9 3 -1142.36 577.548 1
-13 -9 3 1040.14 572.419 9
-13 9 -3 -203.967 643.299 7
-9 13 -3 -164.785 460.093 7
13 9 4 509.92 323.772 6
13 9 -4 674.963 308.342 6
13 -9 -4 731.38 336.703 6
9 -13 -4 918.475 351.203 6
-13 9 4 487.703 212.635 10
-13 9 -4 964.703 396.148 10
13 9 5 175.35 189.215 6
13 9 -5 190.708 285.267 6
-13 9 5 342.358 271.878 10
13 -9 -5 229.003 240.257 6
9 -13 -5 -121.941 222.125 6
-13 9 -5 -58.1148 268.122 10
13 9 -6 222.06 186.515 6
13 -9 -6 486.065 276.024 6
9 -13 -6 113.099 242.341 6
-13 9 6 68.3612 213.847 4
-13 9 -6 163.93 244.104 10
13 -9 -7 374.235 289.142 6
-13 9 7 519.65 325.174 4
9 -13 -7 456.559 261.743 6
13 -9 -8 121.603 186.301 6
-13 9 8 -15.4548 199.836 4
9 -13 -8 240.285 236.743 6
-9 13 8 513.195 310.504 4
9 -13 8 165.727 253.769 5
-9 -13 8 424.05 247.755 5
-13 9 9 296.7 283.176 4
-9 13 9 12.6946 215.144 4
13 -9 9 171.118 240.009 5
9 -13 9 -70.2659 281.709 5
-9 -13 9 -136.426 263.668 5
13 -9 10 459.401 278.958 5
-13 9 10 352.078 235.843 4
-9 13 10 137.974 214.84 4
9 -13 10 255.289 256.302 5
-9 -13 10 504.027 270.846 5
13 -9 11 311.026 227.209 5
-13 9 11 174.42 205.327 4
-9 13 11 -25.6595 149.146 4
9 -13 11 110.192 196.394 5
-9 -13 11 -138.685 197.411 5
-13 9 12 88.7457 139.313 4
-9 13 12 217.771 114.822 4
10 13 0 187.628 246.07 6
13 10 0 -193.078 236.605 6
13 -10 0 -244.051 259.801 6
10 -13 0 -191.686 289.533 6
-13 10 0 27.8408 228.527 10
10 13 1 9.89794 222.993 6
10 13 -1 74.0207 224.883 6
13 10 1 -83.8648 275.405 6
13 10 -1 184.038 229.199 6
-13 10 1 206.107 216.049 10
13 -10 1 186.523 255.665 6
13 -10 -1 385.983 275.728 6
10 -13 1 -130.063 231.455 6
10 -13 -1 219.244 286.022 6
-10 -13 1 -680.558 445.312 1
-13 10 -1 185.487 263.21 10
10 13 -2 -9.29937 237.509 6
-13 10 -2 413.291 301.474 10
13 10 2 188.678 216.649 6
13 10 -2 -115.754 230.506 6
13 -10 2 48.3963 224.501 6
13 -10 -2 -30.4081 280.017 6
10 -13 2 88.8502 222.221 6
10 -13 -2 -282.036 330.097 6
-13 10 2 83.8656 260.631 10
10 13 -3 55.9 221.867 6
13 10 3 -148.288 313.824 6
13 10 -3 335.097 226.242 6
13 -10 -3 183.516 259.981 6
10 -13 -3 -417.563 341.392 6
-13 10 3 -90.4183 325.881 10
-13 10 -3 -52.0276 230.483 10
13 10 4 -768.778 321.814 6
13 10 -4 -360.695 266.619 6
13 -10 -4 -414.402 327.448 6
10 -13 -4 -360.338 347.482 6
-13 10 -4 -222.987 361.778 10
-13 10 4 227.459 256.481 10
-13 10 5 -4.21694 236.165 10
13 10 -5 174.794 201.656 6
13 -10 -5 -14.315 234.938 6
10 -13 -5 -387.442 416.579 6
-13 10 -5 192.904 195.967 10
13 10 -6 48.9874 207.567 6
13 -10 -6 -108.982 240.045 6
10 -13 -6 46.596 261.161 6
-13 10 6 -93.3438 205.293 4
-13 10 -6 230.515 207.107 10
13 -10 -7 -169.218 244.005 6
10 -13 -7 60.9109 211.116 6
-13 10 7 -489.716 309.297 4
-10 13 7 -298.983 247.406 4
13 -10 -8 -395.573 285.166 6
-13 10 8 213.626 204.25 4
10 -13 -8 112.61 269.399 6
-10 13 8 -201.023 290.491 4
-10 -13 8 -78.9108 241.966 5
10 -13 -9 -324.414 275.63 6
-10 13 9 45.2231 213.111 4
10 -13 9 82.4695 178.698 5
-10 -13 9 143.642 244.804 5
-13 10 10 -212.25 190.189 4
-10 13 10 86.0286 226.706 4
10 -13 10 52.8548 236.864 5
-10 -13 10 -119.856 234.534 5
-10 13 11 152.037 135.412 4
10 -13 11 -24.838 123.747 5
11 13 0 1807.15 466.636 6
13 11 0 1688.33 459.808 6
13 -11 0 1048.01 365.011 6
11 -13 0 650.462 342.725 6
-13 11 0 1364.68 441.534 10
11 13 1 284.596 207.659 6
11 13 -1 737.458 327.809 6
13 11 1 744.132 456.345 6
13 11 -1 316.659 304.195 6
13 -11 1 521.835 337.875 6
13 -11 -1 1093.16 399.333 6
11 -13 1 831.955 328.725 6
11 -13 -1 781.752 389.701 6
-13 11 1 839.87 349.723 10
11 13 -2 1059.83 401.921 6
13 11 2 410.084 297.612 6
13 11 -2 592.272 300.899 6
13 -11 2 425.238 268.903 6
13 -11 -2 399.484 299.986 6
11 -13 2 729.366 252.848 6
11 -13 -2 869.124 398.621 6
-13 11 2 852.29 354.366 10
11 13 -3 173.304 226.55 6
13 11 3 985.167 424.635 6
13 11 -3 114.01 242.952 6
13 -11 -3 -63.6097 270.551 6
11 -13 -3 -115.935 230.957 6
-13 11 3 -0.90359 213.652 10
-13 11 -3 2.78927 281.945 10
13 11 4 450.281 284.437 6
13 11 -4 -101.934 216.229 6
-13 11 4 137.894 240.491 10
13 -11 -4 282.072 315.505 6
11 -13 -4 123.086 264.48 6
-11 13 4 157.804 263.063 10
-13 11 -4 403.388 289.228 10
13 11 -5 535.632 282.611 6
13 -11 -5 136.147 285.704 6
11 -13 -5 577.636 343.553 6
-13 11 -5 181.357 208.306 10
13 11 -6 129.39 209.227 6
13 -11 -6 119.805 212.279 6
11 -13 -6 309.615 256.025 6
-13 11 -6 215.516 265.036 10
13 -11 -7 -134.173 268.798 6
11 -13 -7 -26.0437 216.033 6
-13 11 7 259.123 251.447 4
-11 13 7 -256.33 289.131 4
13 -11 -8 -503.939 263.339 6
11 -13 -8 -433.201 283.199 6
-13 11 8 -149.84 230.003 4
-11 13 8 9.77548 189.531 4
-11 -13 8 -91.0464 198.221 5
-13 11 9 -333.453 237.592 4
-11 13 9 84.0751 170.684 4
-11 -13 9 144.685 202.286 5
-13 11 10 -133.297 178.774 4
-11 13 10 68.1762 200.328 4
-13 11 11 -143.729 151.243 4
-11 13 11 -26.857 118.287 4
12 13 0 -303.085 282.968 6
13 12 0 -19.8595 212.421 6
13 -12 0 95.0199 237.209 6
12 -13 0 -36.4842 212.828 6
-13 12 0 -376.31 332.694 10
12 13 1 -200.478 225.488 6
12 13 -1 55.6877 230.448 6
13 12 1 -115.167 209.783 6
13 12 -1 271.21 207.191 6
13 -12 1 -111.586 206.073 6
13 -12 -1 -185.259 289.579 6
12 -13 1 -82.6037 265.247 6
12 -13 -1 -28.1629 211.856 6
-13 12 1 29.1533 206.166 10
12 13 -2 349.95 268.973 6
13 12 2 44.2051 214.108 6
13 12 -2 527.068 290.649 6
13 -12 2 336.914 209.799 6
12 -13 2 1284.56 373.419 6
13 -12 -2 970.759 412.262 6
12 -13 -2 937.098 359.331 6
-13 12 2 742.756 332.7 10
13 12 3 485.604 289.127 6
12 13 -3 1132.41 411.648 6
13 12 -3 194.648 223.365 6
-12 13 3 560.022 201.626 10
13 -12 -3 559.605 301.902 6
12 -13 -3 424.718 333.275 6
-13 12 3 539.838 299.391 10
-13 12 -3 741.852 368.404 10
12 13 -4 539.845 317.642 6
13 12 -4 596.396 312.894 6
13 -12 -4 374.135 325.501 6
12 -13 -4 500.709 320.548 6
-13 12 4 396.184 236.188 10
-12 13 4 748.367 318.306 10
-13 12 -4 210.502 245.032 10
13 12 -5 -78.9874 224.046 6
-13 12 -5 -241.611 325.664 10
13 -12 -5 191.937 243.215 6
12 -13 -5 -65.3305 270.986 6
-12 13 -5 -43.3781 241.767 10
-13 12 -6 -461.422 299.175 10
13 -12 -6 58.5311 235.3 6
12 -13 -6 270.498 222.118 6
-13 12 6 -320.752 250.823 4
-12 13 6 -39.6711 211.864 4
-12 13 -6 407.893 333.714 10
13 -12 -7 226.528 196.762 6
12 -13 -7 332.143 264.346 6
-13 12 7 691.481 299.633 4
-12 13 7 94.1833 212.924 4
-12 13 -7 -184.965 235.548 10
-13 -12 7 600.092 327.057 5
13 -12 -8 -422.452 276.417 6
12 -13 -8 -112.69 233.34 6
-13 12 8 -90.1103 207.467 4
-12 13 8 576.448 266.072 4
-12 -13 8 -314.481 268.41 5
-13 12 9 -137.311 154.74 4
-12 13 9 145.407 208.371 4
-13 12 10 -95.3404 164.265 4
-12 13 10 -417.383 197.647 4
13 13 0 627.612 302.618 6
13 -13 0 490.598 266.63 6
-13 13 0 238.891 265.297 10
13 13 1 606.222 290.805 6
13 13 -1 224.405 283.913 6
13 -13 1 -688.734 363.054 6
13 -13 -1 -400.695 303.421 6
-13 13 1 -65.1809 280.57 10
13 13 -2 -13.7325 242.635 6
13 -13 2 -300.691 285.469 6
13 -13 -2 -212.424 257.761 6
-13 13 2 197.485 269.119 10
13 13 -3 -232.387 253.383 6
13 -13 -3 213.596 273.112 6
-13 13 3 53.4296 176.841 10
-13 13 -3 -253.777 234.466 10
13 -13 -4 846.868 366.851 6
-13 13 4 385.79 262.164 10
-13 13 -4 257.937 248.729 10
13 -13 -5 747.907 362.862 6
-13 13 -5 803.792 363.723 10
-13 13 6 383.305 208.86 4
-13 13 -6 371.825 249.096 10
-13 13 7 515.013 231.432 4
-13 -13 7 117.622 189.688 5
13 -13 -8 -373.69 214.736 6
-13 13 8 -106.262 202.118 4
-13 13 9 -55.4387 162.381 4
-13 13 10 72.998 123.294 4
14 0 0 143410 3551.1 6
14 0 0 144478 5488.7 2
0 -14 0 146394 4957.51 9
0 14 0 131748 5077.86 8
-14 0 0 140366 4625.39 1
0 14 0 134186 4987.13 7
14 0 1 35973.4 1776.39 6
14 0 -1 35100.2 1780.62 6
14 0 -1 35855.3 2676.48 2
14 0 1 41322.6 2868.23 2
0 -14 -1 39145.7 2652.08 9
0 -14 1 35155.1 2327.14 9
14 0 -1 35622.3 2397.64 3
0 14 1 31307.7 2474.6 8
-14 0 -1 35299.9 2274.68 1
-14 0 1 38632.7 2501.65 1
0 14 -1 39644.6 2734.03 7
0 14 1 35958.7 2575.79 7
14 0 2 8396.61 875.189 6
14 0 -2 9534.78 969.784 6
14 0 2 8769.76 1361.59 2
0 -14 -2 9662.35 1379.84 9
14 0 -2 8592.45 1230.98 3
0 14 2 7515.16 1168.8 8
-14 0 2 10168 1351.49 1
0 14 -2 9916.94 1410.51 7
0 14 2 8229.94 1240.86 7
0 14 3 634.609 517.214 7
14 0 3 -227.049 190.432 6
14 0 -3 -78.2118 206.819 6
14 0 3 -272.998 480.725 2
0 -14 -3 620.948 571.961 9
0 14 3 -446.456 638.738 8
-14 0 3 310.891 451.026 1
14 0 -3 -513.442 411.516 3
0 14 -3 296.201 474.299 7
14 0 -4 2068.99 490.863 6
14 0 4 2036.68 741.459 2
0 -14 -4 2060.46 723.539 9
0 14 4 2005.16 751.931 8
14 0 -4 1474.79 631.954 3
-14 0 4 2221.43 732.741 1
0 14 -4 754.794 463.917 7
14 0 -5 6752.32 844.119 6
-14 0 5 7926.06 1349.9 1
0 -14 -5 6018.18 1143.79 9
14 0 5 7852.07 1395.2 2
0 14 5 5513.47 1197.5 8
14 0 -5 6138.71 1212.38 3
0 14 -5 6405.28 1268.06 7
14 0 -6 12605.7 1122.62 6
14 0 6 14488 1318.79 5
0 -14 6 14295.1 1389.59 5
14 0 -6 11770.8 1734.29 3
0 14 -6 12073.1 1650.06 7
14 0 -7 4219.29 676.548 6
0 14 7 3424.41 648.282 4
0 -14 7 5285.71 887.694 5
14 0 7 4759.68 782.091 5
14 0 8 3079.39 664.606 5
0 -14 8 4086.91 763.556 5
14 0 9 444.027 296.953 5
0 -14 9 225.054 300.361 5
0 -14 10 124.053 251.755 5
0 -14 11 135.009 220.596 5
0 -14 12 -0.65596 196.759 5
0 -14 13 434.356 239.783 5
1 14 0 484.353 505.684 7
14 1 0 74.6269 228.777 6
14 -1 0 214.987 255.03 6
14 1 0 644.226 718.786 2
14 -1 0 196.202 446.173 2
-14 -1 0 -255.53 403.228 1
1 -14 0 -626.115 369.545 9
-1 -14 0 310.064 390.839 9
-14 1 0 -95.6011 382.201 1
-1 14 0 1472.02 666.751 8
1 14 0 916.388 687.972 8
-1 14 0 808.662 592.454 7
1 14 -1 281.954 312.81 7
-1 14 1 907.153 586.08 7
1 14 1 -680.719 557.327 7
14 1 1 -125.92 253.935 6
14 1 -1 30.7601 250.931 6
14 -1 1 18.4835 215.993 6
14 -1 -1 156.74 226.15 6
14 1 -1 730.427 566.825 2
14 -1 -1 121.221 477.123 2
14 -1 1 620.29 504.132 2
14 1 1 352.271 498.28 2
-14 -1 -1 -335.46 406.238 1
1 -14 -1 1067.32 499.131 9
-1 -14 -1 465.474 470.304 9
-1 -14 1 -766.97 429.511 9
-14 -1 1 245.013 478.111 1
-1 14 1 292.345 460.608 8
1 14 1 83.1652 451.432 8
-14 1 1 -121.489 345.656 1
14 -1 -1 530.083 430.548 3
-1 14 -1 670.832 527.636 7
-1 14 2 -129.481 454.551 7
1 14 2 337.326 412.029 7
14 1 2 267.562 390.109 2
-14 -1 -2 -490.24 500.969 1
14 1 2 -300.875 295.244 6
14 1 -2 -8.94074 228.135 6
14 -1 2 -301.938 280.239 6
14 -1 -2 -104.367 267.303 6
14 -1 2 23.2922 320.197 2
1 -14 -2 -106.573 417.514 9
-14 -1 2 -123.29 419.797 1
-1 14 2 -189.096 462.598 8
1 14 2 -358.419 515.771 8
-14 1 2 -784.106 580.403 1
14 1 -2 -523.223 355.034 3
14 -1 -2 -351.15 351.47 3
-1 14 -2 -263.294 330.019 7
1 14 -2 -79.5108 332.505 7
-1 14 3 2.99663 388.638 7
1 14 3 -980.781 514.829 7
14 1 3 320.45 184.272 6
14 -1 3 -269.805 259.306 6
14 1 -3 119.084 200.037 6
14 -1 -3 429.183 299.537 6
14 -1 3 -795.509 496.082 2
14 1 3 438.612 535.155 2
1 -14 -3 487.572 344.048 9
-1 -14 -3 -285.176 612.281 9
-1 14 3 -294.905 476.474 8
1 14 3 -895.977 712.31 8
-14 -1 3 -614.701 572.441 1
14 1 -3 -6.10012 360.204 3
-14 1 3 299.082 312.782 1
14 -1 -3 261.994 419.037 3
1 14 -3 178.29 288.768 7
-14 1 4 1203.89 478.444 1
14 1 -4 116.892 238.989 6
14 -1 -4 518.25 282.878 6
14 -1 4 183.283 390.216 2
14 1 4 1342.18 541.366 2
1 -14 -4 1268.96 618.238 9
-1 -14 -4 467.476 341.161 9
-1 14 4 784.316 472.415 8
1 14 4 281.772 437.31 8
14 1 -4 641.406 372.002 3
-14 -1 4 65.5674 299.164 1
14 -1 -4 339.526 336.656 3
-1 14 -4 -185.058 310.826 7
1 14 -4 -302.055 509.14 7
-14 -1 5 527.753 458.871 1
-14 1 5 2286.23 819.741 1
14 1 -5 917.078 353.902 6
14 -1 -5 961.795 346.423 6
14 -1 5 1072.93 421.716 5
1 -14 -5 2014.29 808.069 9
-1 -14 -5 265.663 343.486 9
14 -1 5 1560.06 765.695 2
14 1 5 185.949 442.694 2
-1 14 5 458.36 579.859 8
1 14 5 1249.75 628.584 8
1 -14 5 1422.12 470.832 5
14 1 -5 1086.45 575.463 3
14 -1 -5 1304.31 686.025 3
-1 14 -5 1250.07 677.147 7
1 14 -5 345.637 401.686 7
14 1 -6 792.802 343.306 6
14 -1 -6 606.026 327.694 6
14 -1 6 637.766 383.846 5
1 -14 6 1353.16 503.279 5
-1 -14 6 910.964 439.625 5
14 1 -6 1090.07 686.656 3
1 14 -6 1365.71 634.05 7
14 -1 7 558.8 386.745 5
14 1 -7 10.7543 276.738 6
14 -1 -7 -2.29839 272.544 6
1 -14 7 400.96 388.522 5
-1 -14 7 -47.1473 309.68 5
-1 14 8 -404.603 265.838 4
1 -14 -8 326.727 250.831 6
1 -14 8 196.398 344.393 5
-1 -14 8 412.76 377.013 5
14 -1 8 -539.078 337.254 5
14 -1 9 878.779 435.57 5
-1 14 9 392.712 284.891 4
1 -14 9 477.785 287.319 5
-1 -14 9 540.823 338.926 5
-1 14 10 -199.069 212.206 4
14 -1 10 420.877 256.243 5
1 -14 10 -86.5945 268.773 5
-1 -14 10 620.536 327.818 5
1 -14 11 85.7171 229.947 5
-1 -14 11 332.973 267.644 5
1 -14 12 293.883 266.497 5
-1 -14 12 129.564 222.081 5
1 -14 13 136.794 157.657 5
-1 -14 13 314.012 219.293 5
14 2 0 14992.1 1172.5 6
14 -2 0 15027.3 1153.18 6
14 2 0 15160.8 1753.55 2
14 -2 0 15688.2 1759.19 2
-14 2 0 15709.5 1326.15 10
2 -14 0 16644 1674.23 9
-2 -14 0 14309.3 1615.15 9
14 -2 0 13398.8 1498.25 3
-2 14 0 13746.8 1656.74 8
2 14 0 13444.1 1619.72 8
-14 -2 0 15981.6 1612.7 1
-2 14 0 14378.7 1657.56 7
2 14 0 14900.2 1682.54 7
14 2 1 38441.6 1867.55 6
14 2 -1 39561.5 1929.59 6
14 -2 1 37046.2 1823.63 6
14 -2 -1 40150.8 1909.53 6
-14 2 1 42180.7 2144.12 10
14 2 -1 43611.8 3000.44 2
14 -2 -1 42193.9 2923.19 2
14 -2 1 44298.6 2983.57 2
14 2 1 42446.8 2898.41 2
-14 2 -1 41176.7 2104.8 10
2 -14 -1 41578.9 2712.27 9
-2 -14 -1 42004.1 2797.56 9
-2 -14 1 35070.7 2408.58 9
14 -2 -1 39444.4 2624.86 3
-2 14 1 33962.3 2657.75 8
2 14 1 31911.1 2529.99 8
-14 -2 -1 40332.3 2515.82 1
-14 -2 1 36943.8 2524.95 1
-2 14 -1 39130.2 2754.45 7
-14 2 1 37898.6 2441.63 1
-2 14 1 39665.4 2683.3 7
2 14 -1 38877.6 2716.67 7
2 14 1 38025.4 2697.68 7
14 2 2 12762.1 1092.08 6
14 2 -2 16198.2 1238.23 6
14 -2 2 13420.5 1090.22 6
14 -2 -2 14379.8 1153.77 6
14 -2 2 16386.5 1846.71 2
14 2 2 16065.1 1833.55 2
-14 2 -2 15192.3 1295.46 10
2 -14 -2 15164 1761.12 9
-2 -14 -2 15361.9 1722.69 9
14 2 -2 12364.4 1437.81 3
14 -2 -2 14598.8 1640.33 3
-14 -2 -2 14105.1 1627.25 9
-14 -2 -2 14095.3 1504.73 1
-2 14 2 10992.3 1526.56 8
2 14 2 10923 1513.98 8
-14 -2 2 14820.8 1681.1 1
-2 14 -2 15002.3 1740.02 7
2 14 -2 13497.2 1666.62 7
-2 14 2 11663.5 1452.29 7
2 14 2 14131.2 1675.14 7
-14 2 2 14582.1 1590.72 1
2 14 -3 1549.55 696.662 7
-14 2 3 1637.06 624.932 1
-2 14 3 846.824 461.705 7
-14 2 -3 806.749 282.942 10
14 2 3 1270.45 396.611 6
14 2 -3 1687.92 464.915 6
14 -2 3 1201.39 347.039 6
14 -2 -3 1431.83 387.765 6
-14 -2 -3 1496.15 608.1 1
14 -2 3 1777.27 677.097 2
14 2 3 1998.9 663.41 2
2 -14 -3 684.235 559.228 9
-2 -14 -3 1314.55 412.92 9
-14 -2 -3 1280.74 577.98 9
-2 14 3 983.121 499.149 8
2 14 3 1681.07 646.229 8
-14 -2 3 1880.98 657.207 1
14 2 -3 1469.73 548.433 3
14 -2 -3 1374.27 441.427 3
-2 14 -3 1519.15 621.278 7
-14 2 4 1097.25 553.979 1
14 2 4 1359.81 390.789 6
14 2 -4 1373.42 432.53 6
14 -2 -4 1257.76 389.789 6
14 -2 4 758.831 470.746 2
14 2 4 798.804 461.077 2
2 -14 -4 1300.57 622.058 9
-2 -14 -4 2024.89 798.054 9
-2 14 4 2012.67 827.812 8
2 14 4 1552.72 713.017 8
-14 -2 4 766.039 451.702 1
2 -14 4 712.668 411.983 5
14 2 -4 1432.33 691.42 3
14 -2 -4 678.033 443.009 3
-2 14 -4 724.738 635.388 7
2 14 -4 1793.56 668.826 7
14 2 -5 5870.95 784.56 6
14 -2 -5 6124.68 782.73 6
-14 2 5 6812.5 1240.98 1
14 -2 5 5418.43 790.624 5
2 -14 5 6120.31 867.954 5
2 -14 -5 7040.95 1335.16 9
-2 -14 -5 5702.11 1120.82 9
14 -2 5 5573.23 1130.47 2
14 2 5 7730.24 1361.12 2
-2 14 5 5955.49 1269.71 8
2 14 5 5115.18 1130.63 8
14 2 -5 6952.52 1305.6 3
-14 -2 5 8707.94 1460.77 1
14 -2 -5 5335.34 1189.5 3
-2 14 -5 5517.16 1130.81 7
2 14 -5 4469.11 1024.1 7
14 2 -6 5226.72 747.272 6
14 -2 -6 5393.72 737.243 6
14 -2 6 5403.48 812.969 5
2 -14 6 6566.23 941.986 5
14 2 -7 9068.58 945.931 6
14 -2 -7 8882.35 922.925 6
14 -2 7 9058.97 1057.24 5
2 -14 7 10203 1151.09 5
-2 -14 7 10290.8 1211.56 5
2 -14 -8 4161.99 656.289 6
14 -2 -8 4031.44 623.685 6
-2 14 8 3857.84 665.322 4
14 -2 8 3691.63 704.355 5
2 -14 8 4841.97 845.036 5
-2 -14 8 4439.16 846.865 5
-2 14 9 1343.07 392.386 4
2 -14 9 247.284 297.736 5
-2 -14 9 1212.9 470.366 5
14 -2 9 785.015 391.149 5
-2 14 10 28.0933 192.436 4
14 -2 10 -117.79 305.183 5
-2 -14 10 -372.526 311.118 5
-2 14 11 205.017 167.497 4
2 -14 11 427.109 295.275 5
-2 -14 11 643.262 328.886 5
2 -14 12 834.46 343.564 5
-2 -14 12 707.65 318.414 5
2 -14 13 245.767 181.932 5
-2 -14 13 186.933 196.378 5
3 14 0 106.945 334.048 7
14 -3 0 380.976 409.137 3
14 3 0 184.497 299.877 6
14 -3 0 -324.544 247.411 6
14 3 0 179.304 331.444 2
14 -3 0 284.98 327.881 2
-14 3 0 -8.90738 276.491 10
-14 -3 0 415.537 410.783 1
3 -14 0 -222.621 443.445 9
-3 -14 0 -110.628 414.558 9
-14 -3 0 81.2175 479.99 9
-3 14 0 -35.5358 472.238 8
3 14 0 250.701 535.251 8
-3 14 0 462.915 427.297 7
3 14 -1 2408.56 780.526 7
3 14 1 2657.81 800.925 7
14 -3 -1 3078.53 799.606 3
14 3 1 2719.54 561.266 6
14 3 -1 3006.79 582.502 6
14 -3 1 2717.04 522.285 6
14 -3 -1 2597.92 545.358 6
14 3 -1 2488.39 769.325 2
14 -3 -1 2545.05 729.124 2
-14 -3 -1 2803.72 746.246 1
14 -3 1 2658.35 717.809 2
14 3 1 2828.62 792.586 2
-14 3 1 3454.85 684.131 10
-14 3 -1 2909.07 600.994 10
-14 -3 1 1946.72 572.971 1
3 -14 -1 2177.24 672.733 9
-3 -14 -1 3125.26 794.389 9
-3 -14 1 2225.73 617.454 9
-14 -3 -1 2564.88 799.208 9
-3 14 1 2108.75 747.261 8
3 14 1 1738.95 697.575 8
-14 3 -1 3014.47 927.847 7
-3 14 -1 2935.22 864.986 7
-3 14 1 2916.92 821.502 7
-3 14 2 2315.07 623.03 7
3 14 -2 2534.4 788.586 7
3 14 2 3082.75 812.134 7
-14 3 2 3154.36 752.472 1
-14 3 2 2458.62 603.188 10
14 3 2 2876.33 551.894 6
14 3 -2 2981.53 572.153 6
14 -3 2 2942.23 554.051 6
14 -3 -2 3066.36 568.916 6
14 -3 -2 2535.1 815.107 2
14 3 2 3145.56 869.86 2
-14 -3 -2 2402.16 621.357 1
-14 3 -2 3111.67 624.903 10
14 -3 2 2966.29 820.126 2
3 -14 -2 2964.11 790.456 9
-3 -14 -2 3494.06 863.9 9
-14 -3 2 2411.13 693.56 1
-14 -3 -2 2171.27 675.104 9
-3 14 2 1980.56 738.116 8
3 14 2 2582.71 767.693 8
-3 14 -2 3451.13 897.764 7
14 -3 -2 2776.79 803.819 3
3 14 -3 4480.04 950.538 7
14 3 3 5089.62 709.879 6
14 3 -3 5751.9 786.805 6
14 -3 3 4647.48 649.389 6
14 -3 -3 5085.35 724.935 6
-14 3 3 5077.75 1004.52 1
-14 3 -3 5211.91 771.598 10
14 -3 3 6168.41 1153.94 2
14 3 3 5802.52 1122.44 2
3 -14 -3 5714.04 1128.4 9
-3 -14 -3 4935.24 1008.53 9
-14 -3 -3 4588.89 967.859 9
-14 -3 3 5100.04 1016.74 1
-3 14 3 4746.87 1050.87 8
3 14 3 4236.27 1037.71 8
3 -14 3 4293.57 669.165 5
14 3 -3 4552.54 932.159 3
-3 14 -3 5477.44 1083.89 7
14 -3 -3 3528.53 777.302 3
3 14 -4 2894.75 768.266 7
14 3 4 3270.21 564.129 6
-14 3 4 3141.3 789.691 1
14 3 -4 3988.31 670.316 6
14 -3 -4 3560.44 640.185 6
-14 3 -4 2429.44 538.413 10
14 -3 4 3355.22 979.982 2
14 3 4 3446.46 946.085 2
3 -14 -4 3542.2 924.682 9
-3 -14 -4 3710.99 891.257 9
-14 -3 -4 2413.18 696.773 9
-3 14 4 3462.82 1015.9 8
3 14 4 3508.34 1027.57 8
-14 -3 4 2192.91 722.695 1
3 -14 4 3034.84 606.604 5
14 3 -4 3601.85 859.034 3
-14 3 -4 3308.39 964.228 7
14 -3 -4 3173.77 895.46 3
-3 14 -4 2474.22 780.904 7
3 14 -5 2967.38 808.69 7
14 3 -5 4673.11 712.051 6
14 -3 -5 5077.07 723.032 6
-14 3 5 3927.15 859.509 1
3 -14 5 5139.07 801.845 5
3 -14 -5 4346.75 1058.71 9
-3 -14 -5 4345.61 986.56 9
14 -3 5 5406.02 1169.18 2
14 3 5 6296.74 1239.34 2
-3 14 5 5018.79 1199.03 8
3 14 5 3929.3 1107.77 8
14 3 -5 5343.94 1202.66 3
-14 3 -5 5372.8 1245.56 7
-14 -3 5 6036.05 1178.09 1
14 -3 -5 3928.68 1013.66 3
-3 14 -5 4313.75 1054.45 7
14 3 -6 621.147 357.055 6
14 -3 -6 962.983 371.864 6
14 -3 6 1061.93 407.061 5
3 -14 6 912.979 402.954 5
14 3 -7 72.165 189.107 6
14 -3 -7 142.314 295.189 6
3 -14 -7 -94.4023 244.517 6
14 -3 7 655.467 306.935 5
3 -14 7 -100.024 241.467 5
-3 -14 7 216.211 377.886 5
14 -3 -8 994.499 343.4 6
-3 14 8 835.301 344.503 4
3 -14 -8 175.133 217.045 6
14 -3 8 625.217 371.012 5
3 -14 8 935.563 457.485 5
-3 -14 8 605.843 422.814 5
-14 3 9 1924.29 445.689 4
-3 14 9 1744.15 461.379 4
14 -3 9 1350.2 447.864 5
3 -14 9 1656.19 533.673 5
-3 -14 9 1231.35 464.122 5
-14 3 10 1802.01 411.141 4
-3 14 10 1187.73 358.621 4
14 -3 10 1071.94 469.158 5
3 -14 10 2630.6 542.306 5
-3 -14 10 1818.93 538.478 5
-14 3 11 681.104 236.001 4
-3 14 11 815.527 317.071 4
14 -3 11 692.868 323.3 5
3 -14 11 284.448 310.075 5
-3 -14 11 600.718 317.153 5
-14 3 12 -275.19 189.712 4
-3 14 12 0.40597 142.007 4
3 -14 12 48.7558 176.867 5
-3 -14 12 -91.268 174.815 5
3 -14 13 56.6866 156.779 5
-3 -14 13 243.275 175.483 5
14 4 0 26013 1576.26 6
14 -4 0 27097.7 1588.23 6
14 -4 0 27068.9 2375.46 2
14 4 0 28171 2419 2
-14 4 0 25845.4 1694.79 10
4 -14 0 22676.7 1932.98 9
-4 -14 0 28086.3 2297.66 9
-14 -4 0 25964.6 2234.32 9
14 -4 0 24274.4 2131.81 3
-4 14 0 22903.1 2194.77 8
4 14 0 17812.2 1877.51 8
-14 -4 0 25592.1 2158.39 1
-4 14 0 24805.4 2311.53 7
4 14 0 22106.6 2125.14 7
14 4 1 10724.8 1021.4 6
14 4 -1 10741.9 1041.53 6
14 -4 1 10092.4 976.093 6
14 -4 -1 11020.5 1048.01 6
-14 4 1 10439.7 1131.4 10
14 4 -1 8514.64 1362.45 2
14 -4 -1 9571.59 1405.74 2
14 -4 1 9637.65 1398.84 2
14 4 1 9586.52 1397.03 2
-14 4 -1 11048.9 1140.9 10
4 -14 -1 11341 1529.14 9
-4 -14 -1 11149.2 1466.53 9
-4 -14 1 10242.4 1403.11 9
-14 -4 -1 9859.06 1413.83 9
-14 -4 1 9200.57 1421.57 9
14 -4 -1 10556.1 1448.09 3
-14 -4 -1 9317.15 1290.86 1
-14 -4 1 10212.4 1424.98 1
-4 14 1 6874.06 1276.18 8
4 14 1 5339.61 1011.78 8
-14 4 -1 10002.9 1467.49 7
-4 14 -1 9837.25 1398.81 7
-4 14 1 9019.98 1311.97 7
4 14 -1 10389 1456.56 7
4 14 1 9373.06 1407.13 7
-4 14 2 5501.67 1066.3 7
4 14 -2 6672.43 1168.82 7
14 -4 -2 5982.86 1130.18 3
14 4 2 6190.69 800.574 6
14 4 -2 8185.01 941.029 6
14 -4 2 5604.32 738.475 6
14 -4 -2 6374.4 804.19 6
-14 4 2 5344.08 814.37 10
14 4 -2 6278.59 1164.62 2
14 -4 -2 5864.17 1140.71 2
14 -4 2 6838.74 1236.39 2
-14 4 -2 7124.91 896.792 10
14 4 2 7158.95 1196.77 2
-4 -14 -2 8326.77 1310.7 9
4 -14 -2 6641.45 1187.46 9
-14 -4 -2 6672.71 1203.74 9
-4 14 2 5038.27 1008.62 8
4 14 2 5281.37 1031.19 8
-14 -4 2 6541.21 1206.55 1
-14 4 -2 5538.2 1216.46 7
-4 14 -2 5752.44 1111.35 7
4 14 -3 1019.07 487.345 7
14 4 3 444.729 243.697 6
-14 4 -3 1512.67 461.522 10
14 4 -3 1037.19 362.018 6
-14 4 3 829.099 557.328 1
14 -4 3 579.881 229.177 6
14 -4 -3 754.816 331.391 6
-14 4 3 1812.1 508.092 10
14 -4 3 1670.99 690.273 2
14 4 3 1716.37 584.072 2
4 -14 -3 2251.2 778.264 9
-4 -14 -3 546.731 386.857 9
-14 -4 -3 565.864 546.452 9
-14 -4 3 427.211 318.199 1
-4 14 3 1058.66 595.93 8
4 14 3 563.401 452.548 8
-14 4 -3 1575.47 819.976 7
-4 14 -3 2186.32 713.415 7
14 -4 -3 1911.36 717.888 3
4 14 -4 -101.263 364.385 7
14 4 4 669.028 315.438 6
14 4 -4 644.397 358.684 6
14 -4 -4 386.045 241.437 6
-14 4 4 -277.48 456.083 1
-14 4 -4 400.291 270.364 10
4 -14 -4 365.645 563.573 9
14 -4 4 -117.91 499.778 2
14 4 4 864.419 511.406 2
-4 -14 -4 907.271 529.68 9
-14 -4 -4 537.799 408.216 9
-4 14 4 -828.196 624.302 8
4 14 4 336.188 386.62 8
-14 -4 4 299.247 394.923 1
4 -14 4 499.74 329.216 5
14 4 -4 174.427 376.771 3
-14 4 -4 728.902 663.288 7
-4 14 -4 975.116 574.375 7
14 -4 -4 237.482 423.801 3
4 14 -5 2067.82 708.511 7
14 -4 -5 4122.39 663.546 6
14 4 -5 3189.19 595.8 6
-14 4 5 3625.37 879.066 1
-14 4 -5 3289.31 598.466 10
4 -14 -5 2777.63 783.762 9
-4 -14 -5 1784.09 659.596 9
14 -4 5 3595.81 948.827 2
14 4 5 3447.46 933.1 2
-4 14 5 3603.6 1101.03 8
4 14 5 3444.12 1011.36 8
4 -14 5 3089.77 630.207 5
14 4 -5 2260.22 695.478 3
-14 -4 5 3709.38 1012.76 1
-14 4 -5 2452.57 842.858 7
-4 14 -5 3005.33 896.663 7
14 -4 -5 3194.04 840.658 3
14 4 -6 5776.67 780.723 6
14 -4 -6 4878.41 722.937 6
4 -14 -6 4881.52 753.445 6
14 -4 6 4907.02 789.482 5
4 -14 6 5048.18 799.504 5
14 4 -7 2040.39 472.209 6
14 -4 -7 1439.16 411.525 6
14 -4 7 1980.92 532.178 5
4 -14 -7 2091.07 509.187 6
4 -14 7 1772.57 511.206 5
-4 -14 7 1936.88 566.944 5
-14 4 8 1340.84 395.423 4
14 -4 -8 789.991 268.11 6
-4 14 8 853.939 342.663 4
4 -14 -8 1022.49 349.19 6
14 -4 8 1032.8 354.531 5
4 -14 8 1610.21 495.036 5
-4 -14 8 1407.61 522.073 5
-14 4 9 -378.919 239.325 4
-4 14 9 11.4469 254.971 4
14 -4 9 63.8534 224.096 5
4 -14 9 -90.8421 311.785 5
-4 -14 9 144.985 332.162 5
-14 4 10 -271.312 172.63 4
-4 14 10 195.389 224.856 4
14 -4 10 285.221 274.618 5
4 -14 10 -220.519 302.246 5
-4 -14 10 -35.19 265.844 5
-14 4 11 65.7062 153.682 4
14 -4 11 40.4024 187.189 5
-4 14 11 40.0984 209.486 4
4 -14 11 49.622 232.456 5
-4 -14 11 259.532 244.842 5
-14 4 12 -48.7644 125.77 4
-4 14 12 229.199 139.451 4
4 -14 12 378.589 272.14 5
-4 -14 12 163.92 226.535 5
4 -14 13 -125 144.485 5
5 14 0 -180.959 300.407 7
14 -5 0 594.627 384.106 3
14 5 0 440.486 315.158 6
14 -5 0 380.249 310.649 6
14 -5 0 542.488 591.395 2
14 5 0 -29.0717 391.661 2
-14 -5 0 734.172 445.648 1
-5 -14 0 720.834 506.346 9
-14 -5 0 199.02 325.483 9
-5 14 0 -128.518 402.096 8
5 14 0 -92.4461 491.409 8
-14 5 0 491.153 315.433 10
-5 14 0 122.837 448.067 7
5 14 -1 796.776 490.87 7
14 -5 -1 785.031 463.432 3
14 -5 1 336.219 412.065 3
14 5 1 1120.6 373.088 6
14 5 -1 912.367 403.06 6
14 -5 1 925.307 326.952 6
14 -5 -1 804.461 323.997 6
14 5 -1 828.616 451.089 2
14 -5 -1 434.188 423.938 2
-14 -5 -1 1297.54 631.6 1
14 -5 1 947.424 564.955 2
14 5 1 955.548 536.417 2
-14 5 1 1514.07 459.408 10
-14 5 -1 781.851 365.314 10
-14 -5 1 617.161 516.802 1
5 -14 -1 626.787 449.139 9
-5 -14 -1 2104.91 739.298 9
-5 -14 1 1084.4 551.665 9
-14 -5 -1 1855.02 715.406 9
-14 -5 1 424.167 464.848 9
5 14 -1 -551.29 343.765 8
-5 14 1 -431.657 360.256 8
5 14 1 782.621 472.581 8
-14 5 -1 1387.57 557.053 7
-5 14 -1 754.063 428.198 7
-5 14 1 2085.25 700.127 7
14 5 2 13099.6 1149.48 6
14 5 -2 13367.9 1188.78 6
14 -5 2 12323.5 1080.24 6
14 -5 -2 14415.2 1203.97 6
14 5 -2 11777.1 1551.94 2
14 -5 -2 11632.3 1628.73 2
14 -5 2 14432.2 1747.63 2
14 5 2 14274.8 1698.53 2
-14 5 2 13809.3 1258.14 10
-14 5 -2 14029.6 1266.25 10
5 -14 -2 13930.2 1730.29 9
-5 -14 -2 14285.4 1770.77 9
-5 -14 2 9753.15 1379.15 9
-14 -5 -2 13221 1650.58 9
14 -5 -2 11096.1 1553.36 3
-5 14 2 9822.91 1462.95 8
5 14 2 7652.5 1279.21 8
-14 -5 2 12792.7 1658.39 1
-14 5 -2 14168.4 1832.04 7
-5 14 -2 13949.6 1723.21 7
5 14 -2 11947.4 1620.38 7
14 5 3 14467.1 1176.11 6
14 5 -3 15638.6 1291.24 6
14 -5 3 12820.3 1075.06 6
14 -5 -3 14681.6 1207.54 6
14 -5 3 13868 1736.7 2
14 5 3 12907.8 1714.33 2
-14 5 3 14992.7 1317.47 10
-14 5 -3 15223.7 1302.92 10
5 -14 -3 14378.6 1763.11 9
-5 -14 -3 15680.1 1834.39 9
-14 -5 -3 12115.6 1565.26 9
14 -5 -3 12697.2 1739.37 3
-5 14 3 9536.26 1523.81 8
5 14 3 9122.3 1483.12 8
-14 -5 3 13917.3 1709.96 1
-14 5 -3 15578.3 1985.77 7
-5 14 -3 15852.3 1883.45 7
5 14 -3 12324.2 1622.5 7
14 5 4 13596.4 1116.42 6
14 5 -4 14501.8 1243.4 6
14 -5 -4 13876.3 1184.2 6
14 -5 4 11709 1667.97 2
14 5 4 13344.9 1715.8 2
-14 5 4 14697 1287.85 10
-14 5 -4 12754.6 1169.78 10
5 -14 -4 14973.5 1817.41 9
-5 -14 -4 14824.6 1792.89 9
-14 -5 -4 10283.3 1473.47 9
14 -5 -4 14628.1 1890.01 3
-5 14 4 9510.44 1602.91 8
5 14 4 6988.42 1294.53 8
-14 5 -4 15513.8 2009.17 7
-14 -5 4 14350 1814.47 1
-5 14 -4 14633.3 1873.18 7
5 14 -4 10908.7 1532.27 7
14 5 -5 5605.87 796.718 6
14 -5 -5 6119.21 807.278 6
5 -14 -5 6368.44 871.173 6
5 -14 5 5462.84 777.69 5
-14 5 -5 4880.13 724.523 10
14 5 -5 3457.85 879.996 3
14 5 -6 2532.01 519.176 6
14 -5 -6 3260.57 619.331 6
-14 5 -6 2448.28 508.469 10
5 -14 -6 2751.24 600.916 6
5 -14 6 3032.76 608.443 5
14 5 -7 -76.9296 191.303 6
14 -5 -7 166.723 183.549 6
-14 5 7 -9.05119 222.494 4
5 -14 -7 216.822 274.914 6
14 -5 7 -79.7564 228.154 5
5 -14 7 36.7452 265.079 5
14 -5 -8 888.243 326.61 6
-14 5 8 961.668 351.192 4
5 -14 -8 1106.38 378.255 6
-5 14 8 722.348 341.386 4
14 -5 8 1002.92 420.062 5
5 -14 8 1099.55 429.817 5
-5 -14 8 1306.03 472.812 5
-14 5 9 1958.68 441.616 4
-5 14 9 2337.88 511.968 4
5 -14 9 1209.75 483.213 5
-5 -14 9 1865.98 532.143 5
14 -5 9 2418.6 559.756 5
14 -5 10 2121.09 517.733 5
-14 5 10 1532.56 382.587 4
-5 14 10 2069.18 449.147 4
5 -14 10 1879.89 505.539 5
-5 -14 10 1734.04 484.161 5
-14 5 11 1694.04 375.753 4
-5 14 11 1413.46 338.069 4
14 -5 11 885.641 325.388 5
5 -14 11 1675.14 442.743 5
-5 -14 11 1584.41 430.179 5
-14 5 12 525.499 187.707 4
-5 14 12 31.212 121.952 4
5 -14 12 297.353 233.812 5
-5 -14 12 18.4618 175.372 5
14 -6 0 577.64 399.088 3
14 6 0 107.117 190.992 6
14 -6 0 278.323 241.137 6
-14 -6 0 1492.78 681.667 1
6 -14 0 348.304 300.077 6
14 -6 0 459.447 391.468 2
14 6 0 -161.616 400.05 2
-14 6 0 -31.4398 238.829 10
-6 -14 0 335.352 334.196 9
-14 -6 0 26.2334 378.669 9
-6 14 0 22.0381 366.46 8
6 14 0 -373.977 430.245 8
-6 14 0 396.723 448.512 7
6 14 -1 3187.81 796.431 7
14 -6 -1 2945.29 830.884 3
14 -6 1 2733.29 628.517 3
14 6 1 3508.69 625.418 6
14 6 -1 3757.1 632.559 6
14 6 1 3188.04 845.989 2
14 -6 1 3607.09 615.119 6
14 -6 -1 3961.61 652.665 6
-14 6 -1 3571.34 684.668 10
-14 -6 -1 4490.99 1019.33 1
14 6 -1 2494.04 806.41 2
14 -6 -1 2259.93 707.215 2
6 -14 1 3978.04 674.627 6
6 -14 -1 3429.75 650.311 6
14 -6 1 3606.36 883.602 2
-14 6 1 3249.4 677.291 10
-14 -6 1 2130.44 747.139 1
6 -14 -1 3664.39 964.536 9
-6 -14 -1 3328.06 957.207 9
-6 -14 1 2165.84 769.112 9
-14 -6 -1 4102.83 946.33 9
-14 -6 1 3860.87 909.448 9
-6 14 -1 2500.24 794.624 8
6 14 -1 1075.48 537.218 8
-6 14 1 3019.82 866.643 8
6 14 1 1145.83 519.525 8
-6 14 -1 2704.17 772.287 7
-6 14 1 2609.38 746.738 7
6 14 -2 1699.16 622.665 7
14 -6 -2 1808.23 755.515 3
14 6 2 2625.58 542.367 6
14 6 -2 2377.96 549.714 6
14 -6 2 1704.43 449.985 6
14 -6 -2 2345.64 528.022 6
14 6 -2 2436.16 802.733 2
14 -6 -2 1282.79 520.623 2
6 -14 2 1967.61 488.813 6
6 -14 -2 3402.6 682.586 6
-14 6 2 2537.78 605.849 10
-14 6 -2 1961.53 547.556 10
14 -6 2 2938.63 816.178 2
14 6 2 1348.19 631.01 2
-14 -6 2 2184.39 824.314 1
6 -14 -2 1849.09 587.415 9
-6 -14 -2 2971.77 804.496 9
-6 -14 2 1052.12 442.538 9
-14 -6 -2 2034.85 692.284 9
-14 -6 2 1690.97 739.992 9
-6 14 2 808.417 508.138 8
6 14 2 1480.68 674.889 8
-14 6 -2 2559.77 844.107 7
-6 14 -2 2713.99 810.108 7
6 14 -3 1046.27 645.248 7
14 -6 -3 839.062 485.096 3
14 6 3 1666.29 456.638 6
14 6 -3 2349.05 557.869 6
-14 6 3 1346.05 439.704 10
14 -6 3 1265.08 394.754 6
14 -6 -3 1719.24 468.65 6
14 6 -3 1889.47 723.822 2
14 -6 -3 1059.52 580.816 2
6 -14 -3 1780.18 530.558 6
-14 6 -3 1067.52 394.329 10
14 -6 3 740.051 295.38 2
14 6 3 -91.8615 328.376 2
6 -14 -3 840.721 592.743 9
-6 -14 -3 1812.49 756.261 9
-14 -6 3 728.911 439.831 1
-14 -6 -3 1872.54 767.103 9
-6 14 3 1446.23 770.621 8
6 14 3 645.768 633.68 8
-14 6 -3 1330.95 641.544 7
-6 14 -3 1654.43 609.726 7
6 14 -4 -282.887 464.909 7
14 -6 -4 553.101 555.633 3
14 6 4 95.4535 187.077 6
-14 6 4 185.022 279.852 10
14 6 -4 182.661 254.7 6
14 -6 -4 -3.24718 206.601 6
6 -14 -4 -95.2517 308.609 6
-14 6 -4 222.995 229.409 10
6 -14 -4 443.396 491.966 9
-6 -14 -4 533.512 478.067 9
14 -6 4 158.227 242.661 2
14 6 4 -146.987 399.437 2
-14 -6 -4 74.0486 355.754 9
-14 -6 4 46.7766 554.312 1
-6 14 4 519.607 297.473 8
6 14 4 307.067 515.948 8
-14 6 -4 1507.28 705.204 7
-6 14 -4 98.4806 318.724 7
14 6 -5 792.437 354.86 6
-14 6 -5 743.554 376.623 10
14 -6 -5 1018.9 352.595 6
6 -14 -5 757.165 386.226 6
-14 6 -6 495.518 309.648 10
14 6 -6 652.414 334.756 6
14 -6 -6 435.376 271.261 6
-14 6 6 391.325 265.357 4
6 -14 -6 298.366 238.128 6
6 -14 6 281.919 282.557 5
14 -6 -7 515.988 230.801 6
-14 6 7 556.283 242.95 4
6 -14 -7 797.878 348.281 6
14 -6 7 410.047 244.941 5
6 -14 7 797.786 318.729 5
14 -6 -8 226.246 247.563 6
-14 6 8 106.293 258.23 4
6 -14 -8 -118.449 202.807 6
14 -6 8 -102.752 295.267 5
-6 14 8 276.495 247.306 4
6 -14 8 414.815 235.279 5
-6 -14 8 106.684 279.296 5
-14 6 9 -107.246 190.807 4
-6 14 9 225.564 219.111 4
14 -6 9 -13.5119 215.708 5
6 -14 9 -24.9137 241.238 5
-6 -14 9 402.185 303.642 5
14 -6 10 807.389 375.1 5
-14 6 10 755.909 315.392 4
-6 14 10 560.018 287.141 4
6 -14 10 336.538 285.282 5
-6 -14 10 1287.82 427.846 5
-14 6 11 517.096 238.578 4
-6 14 11 322.734 202.436 4
6 -14 11 183.696 198.987 5
14 -6 11 13.7658 174.466 5
-14 6 12 698.777 214.862 4
-6 14 12 263.473 160.183 4
6 -14 12 92.057 166.286 5
-6 -14 12 159.753 158.602 5
14 -7 0 172.668 308.384 3
14 7 0 -311.561 257.663 6
14 -7 0 -238.206 277.422 6
7 -14 0 -201.515 269.559 6
-14 -7 0 -236.137 462.573 1
14 -7 0 -857.979 614.069 2
14 7 0 161.537 258.012 2
-14 7 0 -299.933 318.013 10
-7 -14 0 -869.422 510.793 9
-14 -7 0 232.151 362.639 9
-7 14 0 -799.554 542.102 7
14 -7 -1 1916.36 677.394 3
14 -7 1 2718.37 852.81 3
14 7 1 2534.89 556.883 6
14 7 -1 3641.13 668.057 6
14 -7 1 2811.96 539.116 6
14 -7 -1 2994.3 600.064 6
7 -14 1 2803 569.451 6
14 7 -1 1306.95 667.507 2
14 -7 -1 2793.79 853.273 2
7 -14 -1 2808.22 572.337 6
-14 7 1 2240.83 569.706 10
-14 7 -1 2372.89 552.863 10
-14 -7 1 3349.3 870.762 1
14 -7 1 1988.06 655.015 2
14 7 1 1563.13 630.542 2
-7 -14 -1 2100.25 635.374 9
-7 -14 1 1445.66 645.961 9
-14 -7 -1 3163.22 902.392 9
-14 -7 1 1658.89 625.341 9
-7 14 -1 342.942 452.533 8
-7 14 1 430.693 374.435 8
7 14 1 312.198 300.514 8
-7 14 -1 2631.14 806.741 7
14 -7 -2 3244.2 929.583 3
14 7 2 3017.18 581.777 6
14 7 -2 3426.95 643.567 6
14 -7 2 3629.41 601.15 6
14 -7 -2 4129.94 671.34 6
14 7 -2 3243.85 859.849 2
14 -7 -2 1928.81 590.498 2
7 -14 2 3492.82 606.047 6
7 -14 -2 4879.78 765.5 6
-14 7 2 2922.08 624.259 10
-14 7 -2 4273.56 698.172 10
14 -7 2 3099.97 859.306 2
14 7 2 2182.28 732.615 2
-14 -7 2 2752.31 760.755 1
7 -14 -2 2725.08 770.52 9
-7 -14 -2 3639.38 939.312 9
-7 -14 2 3488.53 883.887 9
-14 -7 -2 2850.47 836.639 9
-14 -7 2 3941.25 967.497 9
-7 14 2 2504.5 817.002 8
-14 7 -2 3369.33 981.465 7
-7 14 -2 4164.04 1022.81 7
14 7 3 15956.8 1265.99 6
14 7 -3 20341.8 1482.62 6
14 -7 -3 17541.1 1362.74 6
7 -14 -3 20841.4 1548.6 6
14 -7 3 13303 1698.79 2
-14 7 3 17281 1423.12 10
-14 7 -3 16745.1 1383.57 10
7 -14 -3 15302.6 1864.36 9
-7 -14 -3 18005.1 2011.04 9
-14 -7 -3 12800.9 1640.17 9
14 -7 -3 14397.9 1875.7 3
-7 14 3 8281.06 1436.53 8
-14 -7 3 16579.9 1954.64 1
-14 7 -3 16212.9 1990.12 7
-7 14 -3 17280.5 2059.54 7
7 14 -3 13866.9 1726.83 7
14 7 4 17578.2 1292.24 6
14 7 -4 18063.1 1407.28 6
14 -7 -4 17471.1 1359.24 6
7 -14 -4 18748.8 1480.36 6
-14 7 4 19158.2 1482.51 10
-14 7 -4 15799.2 1347.24 10
14 7 5 7429.71 830.187 6
14 7 -5 8272.24 953.849 6
14 -7 -5 8633.25 963.291 6
7 -14 -5 8678.93 1004.59 6
-14 7 5 8341.89 963.261 10
-14 7 -5 7968.79 930.489 10
-14 7 5 7832.61 886.21 4
14 7 -6 1951.08 485.081 6
14 -7 -6 2608.74 564.249 6
-14 7 6 2474.27 536.853 4
7 -14 -6 2500.37 579.814 6
-14 7 -6 2279.8 510.548 10
7 -14 6 2318.88 541.376 5
14 -7 -7 -28.593 256.68 6
-14 7 7 -7.66458 226.486 4
7 -14 -7 -109.553 259.437 6
7 -14 7 245.538 217.813 5
14 -7 -8 310.87 182.812 6
-14 7 8 616.333 330.99 4
7 -14 -8 -39.6457 204.223 6
-7 14 8 467.261 343.133 4
14 -7 8 -335.545 276.307 5
7 -14 8 10.7294 200.07 5
-7 -14 8 78.5262 286.386 5
-14 7 9 3221.61 533.334 4
14 -7 9 2381.56 521.104 5
-7 14 9 3828.18 621.179 4
7 -14 9 2603.52 545.026 5
-7 -14 9 3197.01 645.171 5
-14 7 10 3116.33 515.81 4
-7 14 10 2739.19 507.098 4
14 -7 10 2654.85 521.476 5
7 -14 10 1879.86 466.078 5
-7 -14 10 2876.17 559.216 5
-14 7 11 701.704 250.73 4
-7 14 11 1177.9 303.943 4
14 -7 11 416.389 216.695 5
7 -14 11 602.044 255.211 5
-7 -14 11 638.762 257.777 5
-7 14 12 446.329 193.925 4
7 -14 12 849.865 297.285 5
14 -8 0 -1678.78 632.586 3
14 8 0 409.244 296.051 6
14 -8 0 73.9916 206.647 6
8 -14 0 468.082 360.658 6
-14 -8 0 1241.7 582.746 1
-14 8 0 -10.2807 305.306 10
-8 -14 0 -1254.02 570.554 9
-14 -8 0 179.689 389.195 9
14 -8 -1 1674.14 639.834 3
14 8 1 1554.81 435.923 6
14 8 -1 1989.32 532.627 6
14 -8 1 1655.69 608.564 3
14 -8 1 890.622 383.175 6
14 -8 -1 1521.98 431.308 6
8 -14 1 1281.93 400.176 6
8 -14 -1 2157.09 525.325 6
-14 -8 1 2588.73 870.784 1
-14 8 1 1374.22 466.087 10
-14 8 -1 940.082 404.946 10
-8 -14 -1 1348.55 611.242 9
-8 -14 1 561.681 423.798 9
-14 -8 -1 1023.67 564.164 9
-14 -8 1 1104.34 524.794 9
-8 14 -1 243.728 320.908 7
14 -8 -2 -29.0716 482.879 3
14 8 2 125.874 247.409 6
14 8 -2 -34.9734 311.927 6
14 -8 2 347.13 272.241 6
14 -8 -2 -193.669 276.866 6
8 -14 2 542.553 312.257 6
8 -14 -2 -0.93606 264.463 6
-14 8 2 429.784 364.485 10
-14 8 -2 -194.819 281.472 10
8 -14 -2 -671.035 455.641 9
-8 14 -2 1128.3 627.305 7
14 8 3 582.14 312.968 6
14 8 -3 124.914 346.251 6
14 -8 -3 496.459 357.295 6
8 -14 -3 583.966 358.551 6
-14 8 3 283.043 268.326 10
-14 8 -3 289.913 306.314 10
14 8 4 1945.19 483.858 6
14 8 -4 2235.4 560.196 6
14 -8 -4 2365.59 541.63 6
8 -14 -4 2392.12 563.723 6
-14 8 4 2502.19 598.024 10
-14 8 -4 2038.45 546.811 10
14 8 5 448.062 184.73 6
14 8 -5 387.527 325.163 6
14 -8 -5 1029.8 449.775 6
8 -14 -5 351.489 320.898 6
-14 8 5 290.406 224.787 4
-14 8 5 139.576 307.512 10
-14 8 -5 -40.1645 197.114 10
14 8 -6 -102.259 209.323 6
14 -8 -6 514.925 301.362 6
-14 8 6 35.8068 223.337 4
8 -14 -6 -95.3725 244.073 6
-14 8 -6 453.513 275.599 10
14 -8 -7 -298.415 271.063 6
-14 8 7 -115.339 292.325 4
8 -14 -7 -364.741 264.564 6
8 -14 7 -32.3333 209.491 5
14 -8 -8 -214.592 222.676 6
-14 8 8 -158.057 211.144 4
8 -14 -8 -522.916 252.132 6
-8 14 8 -104.827 276.63 4
8 -14 8 380.764 319.392 5
-8 -14 8 -225.868 292.989 5
-14 8 9 86.0554 180.103 4
-8 14 9 468.615 280.36 4
14 -8 9 558.297 313.451 5
8 -14 9 759.95 355.934 5
-8 -14 9 703.726 351.516 5
-14 8 10 116.114 169.384 4
-8 14 10 224.359 223.082 4
14 -8 10 461.31 279.165 5
8 -14 10 271.31 259.589 5
-8 -14 10 -183.158 260.407 5
14 -8 11 181.128 163.053 5
-14 8 11 186.864 179.894 4
-8 14 11 -120.321 168.317 4
8 -14 11 325.185 223.359 5
-8 -14 11 -33.9386 173.37 5
-8 14 12 217.362 121.219 4
14 9 0 -52.4072 215.253 6
14 -9 0 74.323 239.921 6
9 -14 0 6.17555 259.812 6
-14 9 0 -14.9014 206.584 10
14 9 1 2097.99 511.383 6
14 9 -1 1537.4 497.019 6
14 -9 1 1670.88 466.154 6
14 -9 -1 1998.23 510.697 6
9 -14 1 2059.97 504.892 6
9 -14 -1 2707.38 591.399 6
-14 9 1 1749.61 477.613 10
-14 9 -1 2433.09 547.462 10
14 9 2 15231 1263.61 6
14 9 -2 17656.1 1389.04 6
14 -9 2 15815.1 1226.05 6
14 -9 -2 17324 1375.24 6
9 -14 2 15866.9 1239.3 6
9 -14 -2 18036.4 1445.24 6
-14 9 2 15221.4 1337.16 10
-14 9 -2 15374.1 1356.28 10
14 9 3 12561.3 1151.38 6
14 9 -3 13714.2 1260.87 6
14 -9 -3 12515.4 1190.42 6
9 -14 -3 15021.2 1321.19 6
-14 9 3 12504.3 1197.96 10
-14 9 -3 10839.7 1142.87 10
14 9 4 7960.42 895.928 6
14 9 -4 9481.99 1023.84 6
14 -9 -4 8851.34 992.97 6
9 -14 -4 9306.11 1046.91 6
-14 9 4 8501.34 977.866 10
-14 9 -4 8480.57 993.037 10
14 9 5 2115.14 478.386 6
14 9 -5 2577.53 557.171 6
-14 9 5 3047.37 598.486 10
14 -9 -5 3468.17 628.027 6
9 -14 -5 2418.41 558.088 6
-14 9 5 2887.93 556.129 4
-14 9 -5 3210.28 613.257 10
14 9 -6 -75.6112 286.123 6
14 -9 -6 244.929 214.465 6
9 -14 -6 222.5 221.477 6
-14 9 6 709.42 336.144 4
-14 9 -6 257.043 229.067 10
14 -9 -7 531.604 271.955 6
-14 9 7 457.898 267.363 4
9 -14 -7 370.009 272.067 6
-9 14 7 330.762 225.583 4
14 -9 -8 2388.49 462.343 6
-14 9 8 2964.32 532.679 4
9 -14 -8 2756.56 505.246 6
-9 14 8 2003.07 465.462 4
-9 -14 8 2237.22 545.846 5
-14 9 9 621.558 250.67 4
-9 14 9 571.902 240.488 4
9 -14 9 697.272 321.616 5
-9 -14 9 1199.39 400.344 5
-14 9 10 861.753 259.962 4
-9 14 10 719.748 314.574 4
9 -14 10 469.357 295.286 5
-9 -14 10 829.88 330.196 5
-14 9 11 453.951 213.74 4
-9 14 11 1046.64 281.142 4
9 -14 11 415.506 187.921 5
14 10 0 4820.15 754.843 6
14 -10 0 4845.89 750.633 6
10 -14 0 4948.26 784.309 6
-14 10 0 5004.07 806.386 10
14 10 1 1761.05 456.565 6
14 10 -1 1530.01 468.541 6
14 -10 1 981.238 372.575 6
14 -10 -1 929.545 403.603 6
10 -14 1 909.778 345.212 6
10 -14 -1 1030.62 402.083 6
-14 10 -1 1183.44 438.724 10
-14 10 1 1397.69 472.004 10
14 10 2 1004.96 388.827 6
14 10 -2 1059.09 468.464 6
14 -10 2 811.314 382.9 6
14 -10 -2 626.635 294.937 6
10 -14 2 764.557 352.612 6
10 -14 -2 867.163 414.168 6
-14 10 -2 954.153 405.666 10
-14 10 2 1065.02 425.18 10
14 10 3 647.223 365.111 6
14 10 -3 462.557 281.126 6
14 -10 -3 122.132 275.78 6
10 -14 -3 -10.0824 238.4 6
-14 10 -3 130.932 254.522 10
-14 10 3 -137.068 257.033 10
14 10 4 152.412 254.494 6
14 10 -4 303.838 278.624 6
14 -10 -4 343.908 303.541 6
10 -14 -4 -348.716 320.931 6
-14 10 4 -163.456 198.285 10
-14 10 -4 485.442 281.4 10
14 10 -5 704.401 355.643 6
14 -10 -5 899.968 399.508 6
10 -14 -5 774.482 377.888 6
-14 10 5 427.315 292.11 4
-14 10 5 14.4421 229.283 10
-14 10 -5 -2.58347 222.973 10
14 10 -6 1247.15 365.733 6
14 -10 -6 1011.91 351.889 6
10 -14 -6 1257.05 402.365 6
-14 10 6 805.244 335.407 4
-14 10 -6 1170.2 378.128 10
14 -10 -7 672.402 276.284 6
-14 10 7 1234.85 353.652 4
10 -14 -7 782.234 316.675 6
-10 14 7 828.418 361.077 4
14 -10 -8 374.849 244.355 6
-14 10 8 599.113 274.608 4
10 -14 -8 251.677 220.794 6
-10 14 8 568.051 306.568 4
-10 -14 8 34.9437 233.675 5
-14 10 9 417.842 213.695 4
-10 14 9 259.076 213.602 4
-10 -14 9 615.22 287.239 5
-14 10 10 47.5 143.193 4
-10 14 10 -69.8794 179.29 4
-10 14 11 -65.4293 126.856 4
14 11 0 147.271 223.665 6
14 -11 0 35.1573 236.873 6
11 -14 0 -82.9971 264.1 6
-14 11 0 92.4885 223.062 10
14 11 1 2227.69 521.966 6
14 11 -1 2974.72 628.431 6
14 -11 1 1915.88 461.152 6
14 -11 -1 2195.18 498.905 6
11 -14 1 2220.86 542.368 6
11 -14 -1 1907.89 524.807 6
-14 11 1 2106.27 539.374 10
-14 11 -1 2494.79 570.126 10
14 11 2 2328.27 508.476 6
14 11 -2 2673.78 581.792 6
14 -11 2 2068.6 454.261 6
14 -11 -2 2746.59 601.451 6
11 -14 2 1945.54 443.628 6
11 -14 -2 3052.89 647.323 6
-14 11 2 1846.72 516.106 10
-14 11 -2 2256.12 527.403 10
14 11 3 4688.31 671.444 6
14 11 -3 5372.19 771.824 6
14 -11 -3 5650.9 785.237 6
11 -14 -3 5675.66 807.999 6
-14 11 3 5416.98 797.013 10
-14 11 -3 5067.44 763.281 10
14 11 -4 3132.31 586.799 6
14 -11 -4 3072.22 597.329 6
11 -14 -4 4143.66 691.314 6
-14 11 4 2582.53 534.111 10
-14 11 -4 3202.69 629.763 10
-11 14 4 2938.54 572.512 10
-14 11 -5 1978.27 482.431 10
14 11 -5 1751.32 437.728 6
14 -11 -5 1576.34 416.446 6
11 -14 -5 1726.68 466.267 6
-14 11 5 2101.86 477.552 4
-14 11 5 1453.08 391.622 10
14 11 -6 366.62 185.165 6
-14 11 -6 -391.688 290.999 10
14 -11 -6 166.415 199.068 6
11 -14 -6 164.635 233.26 6
-14 11 6 -229.568 232.178 4
14 -11 -7 87.6537 225.281 6
11 -14 -7 907.508 291.981 6
-14 11 7 402.303 249.994 4
-11 14 7 69.4554 241.371 4
-11 14 -7 301.99 253.683 10
14 -11 -8 750.902 265.771 6
-14 11 8 1124.48 320.011 4
11 -14 -8 1086.59 330.012 6
-11 14 8 851.16 302.018 4
-11 -14 8 976.657 356.191 5
-14 11 9 793.201 261.742 4
-11 14 9 848.787 288.849 4
-11 -14 9 879.564 303.603 5
-14 11 10 508.514 191.57 4
-11 14 10 563.81 237.712 4
14 12 0 1372.53 420.004 6
14 -12 0 2084.72 499.43 6
12 -14 0 1318.59 417.634 6
-14 12 0 1107.47 410.367 10
14 12 -1 4804.5 728.837 6
14 12 1 3500.84 632.517 6
14 -12 1 3805.73 636.544 6
14 -12 -1 4040.76 676.866 6
12 -14 1 3421.89 614.926 6
12 -14 -1 3617.08 691.198 6
-14 12 1 3252.95 631.774 10
-14 12 -1 3448.98 639.343 10
14 12 2 1967.51 475.242 6
14 12 -2 2222.22 515.621 6
14 -12 2 2138.8 470.452 6
14 -12 -2 2909.63 583.531 6
12 -14 2 2207.38 481.434 6
12 -14 -2 2514.34 586.846 6
-14 12 2 2191.7 514.472 10
-14 12 -2 2117.7 536.923 10
-12 14 2 2630.39 557.044 10
14 12 -3 951.929 381.203 6
14 -12 -3 474.037 291.019 6
12 -14 -3 371.978 267.437 6
-14 12 -3 751.436 355.548 10
-12 14 3 462.722 288.301 10
-14 12 3 617.656 325.987 10
14 12 -4 23.6861 188.709 6
14 -12 -4 375.406 267.991 6
12 -14 -4 48.7639 223.996 6
-14 12 4 227.712 185.391 10
-12 14 4 -6.0536 191.55 10
-14 12 -4 254.866 235.125 10
14 12 -5 1310.82 374.999 6
14 -12 -5 1301.83 386.618 6
12 -14 -5 1554.05 428.899 6
-14 12 5 1406.46 392.445 4
-14 12 -5 1270.02 410.977 10
-12 14 -5 1400.91 439.45 10
14 -12 -6 1841.87 423.415 6
12 -14 -6 1727.49 433.554 6
-14 12 6 1471.17 376.067 4
-12 14 6 1547.16 405.775 4
-14 12 -6 1508.95 388.994 10
-12 14 -6 1397.29 397.328 10
14 -12 -7 2408.63 463.655 6
12 -14 -7 1841.58 426.292 6
-14 12 7 2498.94 451.049 4
-12 14 7 2157.17 453.73 4
-12 -14 7 2546.89 529.489 5
14 -12 -8 1219.36 307.335 6
12 -14 -8 899.173 270.551 6
-14 12 8 782.44 262.141 4
-12 14 8 1078.78 304.136 4
-12 -14 8 948.466 320.575 5
-14 12 9 72.2493 146.314 4
-12 14 9 23.6533 155.46 4
-12 14 10 -118.373 150.535 4
14 13 0 -67.7789 266.324 6
14 -13 0 -194.996 216.912 6
13 -14 0 246.36 295.718 6
-14 13 0 178.772 252.605 10
-13 14 0 44.1923 263.29 10
14 13 1 266.125 253.512 6
14 13 -1 -67.1669 249.236 6
14 -13 1 202.263 236.579 6
14 -13 -1 602.402 355.545 6
13 -14 1 206.152 185.402 6
13 -14 -1 822.263 368.398 6
-14 13 1 80.2816 232.664 10
-14 13 -1 430.737 288.708 10
-13 14 1 776.238 372.683 10
-13 14 -1 526.843 316.342 10
14 13 -2 2050.03 489.401 6
14 -13 2 1353.91 338.547 6
13 -14 2 1043.1 345.095 6
14 -13 -2 2002.02 474.731 6
13 -14 -2 1010.55 371.565 6
-14 13 2 1327 394.361 10
-13 14 2 1334.68 402.549 10
-14 13 -2 731.239 357.526 10
-13 14 -2 1125.38 425.634 10
14 13 -3 485.859 291.326 6
14 -13 -3 586.071 345.227 6
13 -14 -3 877.944 340.286 6
-14 13 3 1424.25 393.218 10
-13 14 3 1046.16 350.639 10
-14 13 -3 1137.34 384.051 10
-13 14 -3 1706.44 478.238 10
14 -13 -4 357.09 267.544 6
13 -14 -4 310.181 266.268 6
-14 13 4 64.5419 184.501 10
-13 14 4 93.5094 193.679 10
-14 13 -4 402.177 261.391 10
-13 14 -4 481.004 311.607 10
-14 13 -5 340.117 274.984 10
14 -13 -5 142.34 207.903 6
13 -14 -5 245.109 201.594 6
-14 13 5 236.853 189.441 4
-13 14 -5 -152.104 243.908 10
14 -13 -6 -309.627 287.699 6
13 -14 -6 -10.2198 204.101 6
-14 13 6 -150.436 225.142 4
-13 14 6 -176.663 205.908 4
-14 13 -6 -168.219 188.439 10
-13 14 -6 -141.169 215.466 10
14 -13 -7 -255.137 216.793 6
13 -14 -7 -244.427 189.488 6
-14 13 7 -133.101 202.008 4
-13 14 7 117.08 178.579 4
-13 -14 7 339.615 200.058 5
14 -13 -8 459.337 228.507 6
13 -14 -8 499.866 205.392 6
-14 13 8 232.938 202.938 4
-13 14 8 225.099 202.875 4
-14 13 9 26.4211 120.788 4
-13 14 9 380.972 198.041 4
14 -14 0 9130.13 921.662 6
-14 14 0 9530.5 977.735 10
14 -14 1 2146.91 464.376 6
14 -14 -1 2062.95 494.756 6
-14 14 1 1987.33 474.202 10
-14 14 -1 2225.07 494.583 10
14 -14 2 545.748 227.016 6
-14 14 2 811.059 293.562 10
-14 14 -2 961.685 376.057 10
14 -14 -3 -228.788 263.384 6
-14 14 3 278.995 218.331 10
-14 14 -3 383.808 256.186 10
14 -14 -4 -169.118 196.513 6
-14 14 4 157.106 173.557 10
-14 14 -4 221.314 215.925 10
14 -14 -5 730.556 281.211 6
-14 14 5 219.706 184.253 4
-14 14 -5 481.195 243.272 10
14 -14 -6 2666.31 464.778 6
-14 14 6 2294.57 423.299 4
-14 14 -6 2163.59 454.861 10
14 -14 -7 1681.17 341.687 6
-14 14 7 960.716 275.064 4
14 -14 -8 830.471 193.191 6
-14 14 8 878.346 241.768 4
0 15 0 -398.884 414.482 7
15 0 0 -558.711 348.939 6
15 0 0 -139.756 456.307 2
0 -15 0 101.305 519.054 9
-15 0 0 -677.121 409.072 1
0 15 0 -405.152 517.189 8
0 15 -1 5534.89 1102.8 7
0 15 1 4321.27 998.584 7
15 0 1 5866.82 757.762 6
15 0 -1 5752.09 754.406 6
15 0 -1 4879.79 1041.19 2
15 0 1 5309.75 1093.27 2
0 -15 -1 5376.18 1093.6 9
0 15 1 3021.44 818.318 8
-15 0 1 4700.16 1003.07 1
0 15 2 4618.14 958.042 7
15 0 2 4886.68 681.387 6
15 0 -2 4790.32 702.217 6
15 0 -2 4085.46 962.283 2
15 0 2 4235.41 996.064 2
0 -15 -2 5063.56 1070.68 9
0 15 2 3837.51 999.794 8
-15 0 2 4294.72 912.025 1
0 15 -2 5125.91 1081.35 7
0 15 3 276.583 282.907 7
15 0 3 400.49 239.723 6
15 0 -3 882.898 352.764 6
15 0 3 736.362 475.041 2
0 -15 -3 1174.61 573.904 9
0 15 3 -98.0128 452.633 8
-15 0 3 182.239 367.115 1
15 0 -3 1296.09 541.952 3
0 15 -3 773.711 526.936 7
15 0 -4 -87.477 224.592 6
15 0 4 -751.035 536.577 2
0 -15 -4 92.6091 331.446 9
0 15 4 -150.9 415.314 8
15 0 -4 -373.558 494.702 3
0 15 -4 -192.897 308.894 7
-15 0 4 112.856 330.085 1
15 0 -5 -111.617 229.204 6
0 -15 5 349.773 303.179 5
15 0 -6 268.701 261.165 6
0 -15 6 -446.208 387.226 5
15 0 -7 988.123 345.055 6
0 -15 7 1186.5 433.696 5
0 -15 -8 1941.89 495.831 6
0 -15 8 1458.38 534.935 5
0 -15 9 1332.81 510.093 5
0 -15 10 168.334 221.968 5
0 -15 11 111.307 225.701 5
0 -15 12 41.1124 181.989 5
15 1 0 9613.46 968.957 6
15 -1 0 10892.9 1053.34 6
15 1 0 10654.1 1487.63 2
15 -1 0 11250.7 1681.71 2
1 -15 0 11089.4 1450.03 9
-1 -15 0 8385.57 1256.54 9
-1 15 0 11308.1 1571.96 8
1 15 0 7524.95 1359.32 8
-15 -1 0 7468.27 1137.48 1
-1 15 0 10103.4 1471.23 7
1 15 0 9600.76 1449.62 7
1 15 -1 -188.774 363.353 7
-1 15 1 639.455 437.772 7
1 15 1 509.109 539.464 7
15 1 1 205.81 257.392 6
15 1 -1 471.678 298.671 6
15 -1 1 27.0912 229.62 6
15 -1 -1 124.407 209.446 6
15 1 -1 -114.287 448.255 2
15 -1 -1 288.184 451.795 2
15 -1 1 -684.168 502.614 2
15 1 1 363.521 465.105 2
-15 -1 -1 1562.76 636.834 1
1 -15 -1 14.4823 323.029 9
-1 -15 -1 408.908 308.126 9
-15 -1 1 203.467 358.483 1
-1 15 1 266.353 517.906 8
1 15 1 585.581 418.362 8
-15 1 1 430.874 468.37 1
-1 15 -1 99.7399 329.065 7
1 15 -2 199.544 405.571 7
-1 15 2 855.71 493.916 7
1 15 2 191.482 283.776 7
15 1 2 -1148.25 575.487 2
15 1 2 -2.99202 220.996 6
15 -1 2 317.318 205.465 6
15 1 -2 -29.6408 239.247 6
15 -1 -2 487.975 281.539 6
15 1 -2 994.034 613.116 2
15 -1 -2 1237.87 637.371 2
15 -1 2 -496.34 497.317 2
1 -15 -2 360.166 409.074 9
-1 -15 -2 733.667 507.352 9
-1 15 2 162.469 450.463 8
1 15 2 -48.8345 561.484 8
-15 -1 2 916.349 529.981 1
-15 1 2 1090.63 572.314 1
15 -1 -2 393.283 387.137 3
-1 15 -2 615.127 492.527 7
1 15 -3 -505.783 399.662 7
1 15 3 -1294.81 578.254 7
15 1 3 108.921 212.793 6
15 -1 3 282.713 211.49 6
15 1 -3 313.638 252.546 6
15 -1 -3 236.538 268.308 6
15 -1 3 -47.2885 296.521 2
15 1 3 184.32 364.457 2
1 -15 -3 863.577 584.977 9
-1 -15 -3 -1.82916 382.708 9
-1 15 3 505.1 324.431 8
1 15 3 379.447 363.669 8
-15 -1 3 295.976 325.458 1
15 1 -3 -33.969 349.156 3
15 -1 -3 654.196 484.27 3
-15 1 3 365.12 427.1 1
-1 15 -3 -120.209 377.528 7
-15 1 4 -12.2322 386.888 1
15 1 -4 540.828 333.445 6
15 -1 -4 -183.706 188.823 6
15 -1 4 -210.165 354.403 2
15 1 4 -996.701 567.701 2
1 -15 -4 108.077 489.797 9
-1 -15 -4 -5.69568 408.847 9
-1 15 4 355.167 390.994 8
1 15 4 394.603 409.467 8
1 -15 4 123.243 254.024 5
15 1 -4 612.868 311.441 3
-15 -1 4 166.25 331.089 1
15 -1 -4 -497.48 642.631 3
-1 15 -4 191.523 279.029 7
1 15 -4 -34.5214 462.717 7
15 1 -5 88.9107 304.586 6
15 -1 -5 364.774 294.903 6
1 -15 5 -336.818 360.676 5
15 1 -6 -413.557 285.677 6
15 -1 -6 -106.315 195.302 6
1 -15 6 -628.231 420.614 5
-1 -15 6 200.263 259.84 5
15 1 -7 655.86 277.09 6
15 -1 -7 1017.55 397.6 6
-1 15 7 1007.79 366.101 4
1 -15 7 262.68 294.568 5
-1 -15 7 941.508 407.833 5
15 -1 -8 851.86 338.798 6
-1 15 8 443.918 271.332 4
1 -15 -8 880.644 361.422 6
1 -15 8 71.9641 335.265 5
-1 -15 8 348.249 331.955 5
-1 15 9 379.489 238.318 4
1 -15 9 332.532 284.792 5
-1 -15 9 217.663 286.604 5
1 -15 10 -144.843 235.001 5
-1 -15 10 -10.998 307.342 5
1 -15 11 -125.215 241.705 5
-1 -15 11 210.647 284.066 5
1 -15 12 168.029 215.823 5
-1 -15 12 307.244 213.551 5
2 15 0 -132.653 527.068 7
15 2 0 244.372 182.409 6
15 -2 0 -104.454 235.649 6
15 -2 0 592.5 402.156 2
15 2 0 -346.715 537.568 2
-15 -2 0 593.534 412.092 1
2 -15 0 -593.212 488.968 9
-2 -15 0 -196.187 352.309 9
-2 15 0 404.063 482.165 8
2 15 0 675.473 528.296 8
-2 15 0 654.645 491.934 7
-2 15 1 998.298 601.077 7
2 15 -1 1865.59 692.654 7
2 15 1 1549.24 721.293 7
15 2 1 1211.1 392.66 6
15 2 -1 2337.51 529.097 6
15 -2 1 1874.48 463.566 6
15 -2 -1 2048.62 451.618 6
15 2 -1 1942.9 752.538 2
15 -2 -1 922.672 560.959 2
15 -2 1 1290.64 547.089 2
15 2 1 1549.14 656.759 2
-15 -2 -1 983.989 465.886 1
2 -15 -1 1228.94 547.851 9
-2 -15 -1 1036.12 455.079 9
-15 -2 1 457.381 339.094 1
-2 15 1 2769.63 856.784 8
2 15 1 436.993 387.363 8
-2 15 -1 2240.3 696.162 7
2 15 -2 725.532 517.154 7
-2 15 2 1045.13 558.709 7
2 15 2 281.833 377.021 7
15 2 2 748.193 310.663 6
15 2 -2 1280.31 389.879 6
15 2 2 1209.74 580.338 2
15 -2 2 529.354 288.21 6
15 -2 -2 1314.59 418.807 6
15 2 -2 65.9511 344.99 2
15 -2 -2 1658.51 575.967 2
-15 -2 -2 806.915 472.894 1
15 -2 2 302.53 395.539 2
2 -15 -2 80.7847 462.515 9
-2 -15 -2 105.123 408.143 9
-15 -2 2 1299.66 481.853 1
-2 15 2 893.148 534.98 8
2 15 2 423.414 420.799 8
-15 2 2 1294.88 499.544 1
-2 15 -2 397.726 308.869 7
15 -2 -2 704.246 561.536 3
2 15 -3 716.239 413.402 7
-15 2 3 688.572 391.765 1
15 2 3 767.882 292.776 6
15 2 -3 189.96 199.566 6
15 -2 3 521.169 249.761 6
15 -2 -3 681.133 310.782 6
15 -2 3 1104.36 692.291 2
15 2 3 291.217 433.075 2
2 -15 -3 550.308 476.264 9
-2 -15 -3 -487.41 525.959 9
-2 15 3 21.4889 357.513 8
2 15 3 1989.92 807.49 8
-15 -2 3 -82.5523 402.73 1
2 -15 3 219.275 260.571 5
15 -2 -3 -574.625 536.89 3
-2 15 -3 788.435 497.553 7
2 15 -4 124.781 304.436 7
-15 2 4 -74.9411 350.099 1
15 2 4 -228.495 181.038 6
15 2 -4 254.449 195.923 6
15 -2 -4 211.829 229.452 6
15 -2 4 310.733 423.053 2
15 2 4 49.3116 379.564 2
2 -15 -4 495.046 690.424 9
-2 -15 -4 591.679 424.049 9
-2 15 4 320.961 353.761 8
2 15 4 -1333.56 641.532 8
2 -15 4 -407.809 293.044 5
-15 -2 4 -524.064 521.745 1
15 2 -4 -865.842 610.169 3
15 -2 -4 -152.772 491.525 3
-2 15 -4 -318.657 466.495 7
15 2 -5 -190.435 306.8 6
15 -2 -5 -34.0626 249.698 6
2 -15 5 208.361 279.137 5
15 2 -6 248.341 253.49 6
2 -15 6 326.387 324.076 5
-2 -15 6 841.123 369.303 5
15 2 -7 965.958 359.75 6
15 -2 -7 176.859 236.868 6
2 -15 -7 1244.52 418.633 6
15 -2 7 1101.46 450.844 5
2 -15 7 472.014 321.907 5
-2 -15 7 904.108 377.119 5
15 -2 -8 820.686 312.433 6
-2 15 8 432.48 274.748 4
2 -15 -8 362.068 255.813 6
15 -2 8 1091.31 418.246 5
2 -15 8 426.496 348.331 5
-2 -15 8 96.246 286.732 5
-2 15 9 -123.514 246.62 4
2 -15 9 288.087 320.446 5
-2 -15 9 -57.9711 255.62 5
-2 15 10 -98.7054 153.335 4
2 -15 10 40.6138 215.618 5
-2 -15 10 291.852 307.386 5
2 -15 11 94.9963 222.374 5
-2 -15 11 103.974 206.704 5
2 -15 12 -62.8996 192.271 5
-2 -15 12 -48.7643 163.151 5
3 15 0 1264.15 636.662 7
15 3 0 341.146 277.346 6
15 -3 0 317.461 240.135 6
15 -3 0 367.004 506.393 2
15 3 0 -274.774 445.574 2
-15 3 0 -198.054 336.163 10
-15 -3 0 -140.671 365.193 1
-3 -15 0 349.393 296.197 9
-3 15 0 -774.027 518.739 8
3 15 0 14.3523 367.374 8
-3 15 0 116.025 368.591 7
-3 15 1 959.38 607.816 7
3 15 -1 1637.87 649.747 7
3 15 1 2184.24 725.3 7
15 -3 -1 2056.07 630.841 3
15 3 1 1814.41 458.823 6
15 3 -1 1945.29 471.001 6
15 -3 1 2512.29 521.538 6
15 -3 -1 1951.66 471.446 6
15 3 -1 3184.04 920.466 2
15 -3 -1 1292.51 699.383 2
15 -3 1 2058.82 812.059 2
15 3 1 2137.39 845.334 2
-15 3 1 1912.36 510.248 10
-15 3 -1 2035.8 503.83 10
-15 -3 -1 1838.93 638.462 1
3 -15 -1 1030.13 550.986 9
-3 -15 -1 1813.73 669.613 9
-15 -3 1 2481.78 786.902 1
-3 -15 1 2144.24 693.835 9
3 15 -1 1681.54 734.303 8
-3 15 1 1195.28 486.069 8
3 15 1 1076.57 366.812 8
-15 3 -1 1700.07 567.818 7
-3 15 -1 1279.09 609.548 7
-3 15 2 232.409 296.088 7
3 15 -2 1019.75 609.94 7
15 -3 -2 253.477 432.26 3
3 15 2 848.165 583.08 7
15 3 2 772.811 329.509 6
15 3 -2 544.221 294.293 6
15 -3 2 617.034 303.692 6
15 -3 -2 118.19 252.562 6
15 3 -2 573.193 366.211 2
15 -3 -2 -263.366 399.702 2
-15 -3 -2 702.652 478.419 1
-15 3 -2 226.226 217.214 10
15 -3 2 144.974 533.081 2
15 3 2 1182.75 562.949 2
3 -15 -2 798.6 520.895 9
-3 -15 -2 1114.02 586.775 9
-15 -3 2 772.517 444.752 1
-3 15 2 144.25 449.325 8
3 15 2 824.001 547.58 8
-15 3 -2 346.982 362.277 7
-3 15 -2 367.717 320.761 7
3 15 -3 920.53 444.731 7
-15 3 -3 1006.3 372.088 10
-15 3 3 1209 617.952 1
15 3 3 1448.77 432.117 6
15 3 -3 1025.27 345.161 6
15 -3 3 1473.92 391.005 6
15 -3 -3 1652.25 448.281 6
-15 -3 -3 1222.31 584.351 1
15 -3 3 334.949 448.821 2
15 3 3 1095.29 520.49 2
3 -15 -3 509.015 445.471 9
-3 -15 -3 1940.79 731.148 9
-15 -3 -3 -40.8246 524.029 9
-3 15 3 797.012 370.11 8
3 15 3 544.52 324.13 8
-15 -3 3 1527.4 698.491 1
-15 3 -3 1265.31 616.097 7
-3 15 -3 885.639 383.231 7
15 -3 -3 1487.09 650.998 3
3 15 -4 638.375 370.41 7
15 3 4 313.431 243.191 6
15 3 -4 -133.177 298.796 6
-15 3 4 428.152 329.985 1
15 -3 -4 207.889 253.129 6
3 -15 -4 -455.157 481.096 9
15 -3 4 139.545 459.122 2
15 3 4 -253.702 418.562 2
-3 -15 -4 484.861 370.781 9
-3 15 4 189.676 371.686 8
3 15 4 191.349 325.343 8
3 -15 4 -121.371 283.756 5
-15 -3 4 77.1457 363.27 1
-15 3 -4 -1304.98 659.709 7
-3 15 -4 -173.317 436.823 7
15 -3 -4 251.018 453.151 3
15 3 -5 383.066 319.48 6
15 -3 -5 395.278 236.244 6
3 -15 5 -157.981 276.061 5
15 3 -6 392.507 312.387 6
15 -3 -6 425.351 334.605 6
15 -3 6 201.789 220.856 5
3 -15 6 315.081 246.871 5
15 3 -7 29.987 257.71 6
15 -3 -7 335.594 235.504 6
3 -15 -7 181.76 213.938 6
15 -3 7 113.123 273.869 5
3 -15 7 122.082 274.45 5
-3 -15 7 -256.51 291.533 5
15 -3 -8 560.825 287.288 6
-3 15 8 296.479 245.13 4
3 -15 -8 -86.5273 190.475 6
15 -3 8 183.127 212.068 5
3 -15 8 -45.6829 251.825 5
-3 -15 8 615.516 343.618 5
-3 15 9 933.286 327.361 4
15 -3 9 598.668 373.867 5
3 -15 9 131.021 260.496 5
-3 -15 9 957.523 422.687 5
-3 15 10 1112.57 326.827 4
3 -15 10 710.41 380.864 5
-3 -15 10 425.053 260.332 5
-3 15 11 472.188 203.756 4
3 -15 11 265.146 258.128 5
-3 -15 11 76.4255 218.62 5
3 -15 12 -115.563 192.698 5
-3 -15 12 333.022 210.4 5
4 15 0 -325.801 473.178 7
15 4 0 -175.252 229.149 6
15 -4 0 30.6457 214.492 6
15 -4 0 733.142 511.525 2
15 4 0 922.14 690.292 2
-15 4 0 -15.9429 250.102 10
-15 -4 0 -666.81 448.518 1
-4 -15 0 355.354 339.226 9
-4 15 0 890.112 694.059 8
4 15 0 -302.618 597.978 8
-4 15 0 -47.7062 353.036 7
4 15 -1 988.971 489.012 7
4 15 1 639.735 487.712 7
15 -4 -1 759.121 378.51 3
-15 4 1 106.335 200.905 10
15 4 1 92.0441 278.278 6
15 4 -1 192.689 205.442 6
15 -4 1 439.251 263.704 6
15 -4 -1 598.348 306.931 6
15 4 -1 763.357 411.347 2
15 -4 -1 287.663 460.598 2
15 -4 1 1029.54 597.458 2
15 4 1 440.554 405.427 2
-15 -4 -1 -298.971 381.25 1
-15 4 -1 20.5877 229.265 10
-15 -4 1 79.1407 295.982 1
4 -15 -1 324.966 406.672 9
-4 -15 -1 764.257 508.618 9
-4 -15 1 1022.2 508.7 9
-15 -4 -1 -384.73 522.659 9
-4 15 -1 186.801 338.067 8
4 15 -1 586.922 458.383 8
-4 15 1 -111.248 486.013 8
4 15 1 378.807 556.919 8
-4 15 -1 804.625 420.808 7
-4 15 1 -312.649 372.191 7
4 15 -2 553.603 458.456 7
15 -4 -2 840.655 452.372 3
-15 4 2 893.288 400.201 10
15 4 2 1359.38 432.936 6
15 4 -2 945.412 379.443 6
15 -4 2 1149.83 375.299 6
15 -4 -2 1602.29 462.094 6
15 4 -2 1685.4 725.475 2
15 -4 -2 919.895 541.81 2
-15 -4 -2 247.902 400.65 1
-15 4 -2 1042.58 400.591 10
15 -4 2 532.945 325.303 2
15 4 2 2032.49 723.213 2
4 -15 -2 179.953 433.676 9
-4 -15 -2 1593.93 683.472 9
-15 -4 2 950.363 456.791 1
-15 -4 -2 1058.8 667.237 9
-4 15 2 1054.86 630.382 8
4 15 2 1016.23 480.358 8
-15 4 -2 527.696 422.024 7
-4 15 -2 781.323 554.932 7
4 15 -3 462.705 497.213 7
15 -4 -3 524.402 393.615 3
15 4 3 941.393 334.197 6
15 4 -3 541.586 323.695 6
15 -4 3 1009.91 380.094 6
15 -4 -3 1029.07 402.913 6
15 4 -3 160.796 359.804 2
15 -4 -3 740.788 557.391 2
-15 -4 -3 850.563 504.56 1
-15 4 -3 542.542 310.826 10
15 -4 3 955.026 533.511 2
15 4 3 2249.94 744.896 2
4 -15 -3 526.064 290.344 9
-4 -15 -3 2287 760.812 9
-15 -4 -3 1095.14 530.783 9
-15 -4 3 1062.3 590.479 1
-4 15 3 480.012 476.007 8
4 15 3 826.618 526.502 8
-15 4 -3 -273.529 671.752 7
-4 15 -3 793.873 339.918 7
15 4 4 634.127 315.592 6
15 4 -4 59.3091 223.011 6
15 -4 -4 694.254 318.231 6
-15 4 -4 339.47 198.694 10
4 -15 4 194.318 295.92 5
15 4 -5 659.23 318.659 6
15 -4 -5 374.409 287.298 6
4 -15 5 319.932 286.883 5
15 4 -6 260.001 257.334 6
15 -4 -6 841.071 320.009 6
4 -15 -6 526.75 288.901 6
15 4 -7 1105.82 373.921 6
15 -4 -7 761.749 299.54 6
4 -15 -7 1038.83 401.251 6
15 -4 7 884.114 325.296 5
4 -15 7 489.121 344.814 5
-4 -15 7 647.333 391.863 5
15 -4 8 218.993 212.026 5
15 -4 -8 253.967 259.383 6
-4 15 8 556.917 287.967 4
4 -15 -8 192.343 232.977 6
4 -15 8 124.664 282.847 5
-4 -15 8 955.161 424.061 5
-4 15 9 -124.846 250.621 4
15 -4 9 97.4283 209.354 5
4 -15 9 -289.162 293.419 5
-4 -15 9 331.084 288.263 5
-4 15 10 564.442 273.864 4
4 -15 10 -42.5172 246.925 5
-4 -15 10 526.715 269.119 5
-4 15 11 80.5456 132.405 4
4 -15 11 421.432 275.062 5
-4 -15 11 -221.618 249.824 5
4 -15 12 -161.858 182.784 5
-4 -15 12 -161.279 157.794 5
5 15 0 2739.81 845.661 7
15 -5 0 2544.09 680.528 3
15 5 0 3672.8 620.411 6
15 -5 0 3369.72 598.122 6
15 -5 0 2463.91 796.55 2
15 5 0 2473.32 754.087 2
-15 5 0 3327.84 655.336 10
-15 -5 0 3065.57 873.833 1
-5 -15 0 2921.63 860.745 9
-15 -5 0 2584.57 810.418 9
-5 15 0 3006.67 968.245 8
5 15 0 422.214 498.313 8
-5 15 0 3200.22 898.275 7
5 15 -1 35.6344 324.022 7
15 -5 -1 196.046 295.021 3
-15 5 1 310.7 283.354 10
15 5 1 354.665 304.651 6
15 5 -1 -169.529 219.014 6
15 -5 1 -403.413 237.841 6
15 -5 -1 -275.369 279.233 6
15 -5 1 128.301 427.573 2
15 5 -1 -61.5538 347.189 2
15 -5 -1 -107.385 496.96 2
-15 -5 -1 167.824 385.293 1
15 5 1 -773.217 575.633 2
-15 5 -1 186.006 261.206 10
-15 -5 1 227.309 328.444 1
5 -15 -1 -2296.42 708.044 9
-5 -15 -1 1016.55 581.983 9
-5 -15 1 643.949 478.066 9
-15 -5 -1 -571.756 442.3 9
-5 15 -1 199.275 345.586 8
5 15 -1 -70.6864 327.318 8
-5 15 1 -1224.23 605.976 8
5 15 1 503.148 399.636 8
-5 15 -1 337.679 311.265 7
-5 15 1 326.55 388.614 7
5 15 -2 1777.43 669.525 7
15 -5 -2 206.345 311.019 3
15 5 2 1603.5 446.891 6
15 5 -2 1618.73 452.063 6
15 -5 2 1866.68 464.283 6
15 -5 -2 946.734 339.994 6
15 5 -2 997.223 594.341 2
15 -5 -2 615.661 404.481 2
-15 -5 -2 1843.13 734.217 1
5 -15 2 1466.85 430.591 6
-15 5 2 892.594 376.76 10
15 -5 2 114.315 506.78 2
15 5 2 54.79 339.87 2
5 -15 -2 895.602 570.142 9
-5 -15 -2 2555.94 763.67 9
-15 -5 2 1446.22 784.681 1
-15 -5 -2 513.255 442.568 9
-5 15 2 -278.582 459.179 8
5 15 2 1136.51 581.848 8
-15 5 -2 1218.38 436.049 10
-15 5 -2 425.768 554.667 7
-5 15 -2 1479.05 537.789 7
15 -5 -3 2519.06 777.671 3
15 5 3 4068 666.792 6
15 5 -3 4725.16 722.62 6
15 -5 3 4442.5 645.596 6
15 -5 -3 4670.9 696.348 6
15 5 -3 3770.75 989.542 2
15 -5 -3 2460.06 847.022 2
-15 5 3 4439.7 745.942 10
-15 5 -3 3979.62 671.276 10
15 -5 3 3559.99 916.752 2
15 5 3 4777.42 1092.89 2
5 -15 -3 4491.64 1010.67 9
-15 -5 -3 3688.32 964.671 9
-5 15 3 3548.06 1041.52 8
5 15 3 2564.26 747.425 8
-15 5 -3 3902.15 1047.52 7
15 5 4 2553.46 527.491 6
15 5 -4 2807.81 563.357 6
15 -5 -4 3000 587.56 6
5 -15 -4 2816.75 582.232 6
-15 5 -4 2393.01 507.241 10
15 5 -5 1213.64 407.302 6
15 -5 -5 764.306 298.019 6
5 -15 -5 1347.85 422.856 6
-15 5 -5 1245.24 416.936 10
5 -15 5 1205.1 434.702 5
15 5 -6 929.018 385.019 6
15 -5 -6 623.507 334.436 6
5 -15 -6 1467.19 442.358 6
5 -15 6 729.592 309.196 5
15 5 -7 -255.641 294.645 6
15 -5 -7 -439.938 263.58 6
5 -15 -7 -168.355 244.525 6
5 -15 7 315.587 208.925 5
-5 -15 7 25.0834 260.037 5
15 -5 -8 135.624 203.433 6
5 -15 -8 -108.085 270.213 6
-5 15 8 297.727 256.311 4
5 -15 8 -15.4726 233.835 5
15 -5 8 227.718 272.104 5
-5 -15 8 362.123 314.21 5
-5 15 9 737.714 285.825 4
15 -5 9 508.163 309.42 5
5 -15 9 1103.28 418.074 5
-5 -15 9 1133.7 419.88 5
-5 15 10 403.374 232.536 4
5 -15 10 149.272 247.811 5
-5 -15 10 170.49 259.397 5
-5 15 11 -8.29529 140.209 4
5 -15 11 -120.768 208.757 5
-5 -15 11 -30.9346 210.083 5
5 -15 12 -38.6387 135.088 5
-5 -15 12 -349.417 197.321 5
15 -6 0 -351.911 392.076 3
15 6 0 10.7146 286.446 6
15 -6 0 -2.42066 240.724 6
6 -15 0 -231.245 244.36 6
15 -6 0 -19.259 305.717 2
15 6 0 -236.391 275.715 2
-15 6 0 -99.9024 232.877 10
-15 -6 0 930.03 572.71 1
-6 -15 0 -148.429 307.118 9
-15 -6 0 -103.558 518.564 9
-6 15 0 55.0972 464.257 8
6 15 0 274.302 367.278 8
-6 15 0 67.5367 340.608 7
15 -6 -1 396.381 454.458 3
15 6 1 647.22 322.553 6
15 6 -1 1211.86 428.625 6
15 -6 1 493.991 315.74 6
15 -6 -1 461.715 301.852 6
-15 6 -1 296.272 232.038 10
15 6 -1 935.033 542.584 2
15 -6 -1 -65.025 272.621 2
6 -15 1 942.12 396.24 6
-15 -6 -1 1086.77 546.72 1
6 -15 -1 1042.46 446.419 6
-15 6 1 890.892 388.265 10
15 -6 1 943.345 530.877 2
15 6 1 161.251 398.614 2
-15 -6 1 577.258 459.08 1
-6 -15 -1 682.958 591.328 9
-6 -15 1 -210.723 488.893 9
-15 -6 -1 142.832 240.342 9
-15 -6 1 587.085 301.374 9
-6 15 -1 175.128 359.094 8
6 15 -1 -404.218 460.909 8
-6 15 1 -957.25 528.871 8
6 15 1 46.7801 311.316 8
-6 15 -1 -229.999 356.372 7
15 -6 -2 133.898 329.992 3
15 6 2 330.141 298.611 6
15 6 -2 182.434 262.24 6
15 -6 2 311.51 237.156 6
15 -6 -2 459.057 263.864 6
15 6 -2 -414.916 378.357 2
15 -6 -2 -930.955 495.712 2
6 -15 2 255.3 257.947 6
6 -15 -2 362.849 290.316 6
-15 6 2 619.363 399.47 10
-15 6 -2 11.1518 219.338 10
15 -6 2 469.249 282.398 2
15 6 2 211.206 307.623 2
6 -15 -2 364.215 461.2 9
-6 15 -2 707.228 514.605 8
-6 15 2 -511.614 428.057 8
6 15 2 -165.277 458.747 8
15 6 3 392.083 271.385 6
15 6 -3 781.696 337.189 6
15 -6 3 109.541 198.573 6
15 -6 -3 486.883 338.187 6
6 -15 -3 716.027 383.707 6
-15 6 3 1120.95 414.177 10
-15 6 -3 833.837 371.871 10
15 6 4 777.895 320.683 6
15 6 -4 93.9254 261.522 6
15 -6 -4 272.548 212.31 6
6 -15 -4 112.617 274.208 6
-15 6 -4 591.672 279.905 10
15 6 5 231.814 243.801 6
15 6 -5 123.754 263.235 6
15 -6 -5 149.56 283.71 6
6 -15 -5 160.686 271.141 6
-15 6 -5 124.388 183.049 10
15 6 -6 284.171 268.648 6
15 -6 -6 454.492 310.427 6
6 -15 -6 91.4566 227.795 6
-15 6 -6 135.436 213.278 10
6 -15 6 539.635 292.135 5
15 6 -7 298.535 215.787 6
15 -6 -7 131.577 205.98 6
6 -15 -7 -111.92 212.36 6
6 -15 7 681.818 346.531 5
-6 -15 7 -202.678 285.871 5
-15 6 8 5.74537 192.899 4
15 -6 -8 65.0815 271.592 6
6 -15 -8 -122.591 259.198 6
-6 15 8 -48.5698 198.646 4
6 -15 8 -139.529 244.405 5
-6 -15 8 166.09 255.645 5
-15 6 9 -64.7376 202.103 4
-6 15 9 524.521 270.324 4
15 -6 9 -175.869 277.696 5
6 -15 9 173.167 239.956 5
-6 -15 9 3.32549 250.254 5
-15 6 10 -46.5691 136.647 4
-6 15 10 -183.615 184.604 4
6 -15 10 305.749 292.767 5
-6 -15 10 73.8972 204.412 5
-6 15 11 167.382 170.266 4
6 -15 11 31.2645 171.822 5
-6 -15 11 -344.374 219.555 5
15 7 0 316.262 288.378 6
15 -7 0 777.377 391.046 6
7 -15 0 550.984 362.131 6
-15 7 0 143.599 237.767 10
15 7 1 514.348 249.611 6
15 7 -1 639.378 304.152 6
15 -7 1 53.1509 192.776 6
15 -7 -1 377.741 302.489 6
7 -15 1 507.287 227.665 6
7 -15 -1 230.895 285.038 6
-15 7 1 654.033 397.827 10
-15 7 -1 234.291 301.39 10
15 7 2 -206.101 320.715 6
15 7 -2 621.575 350.618 6
15 -7 2 239.43 236.802 6
15 -7 -2 -12.4723 225.23 6
7 -15 2 -96.9518 251.434 6
7 -15 -2 -423.123 340.782 6
-15 7 -2 -393.396 336.858 10
-15 7 2 -564.401 397.615 10
15 7 3 399.731 288.945 6
15 7 -3 1095.93 419.023 6
15 -7 3 205.74 219.725 6
15 -7 -3 530.589 273.14 6
7 -15 -3 333.791 308.661 6
-15 7 3 326.585 221.546 10
-15 7 -3 694.559 343.466 10
15 7 4 8811.69 934.701 6
15 7 -4 9176.95 1000.86 6
15 -7 -4 10294.7 1052.86 6
7 -15 -4 10424.6 1095.37 6
-15 7 4 9217.28 1026.95 10
-15 7 -4 8551.98 991.145 10
15 7 5 6208.12 746.426 6
15 7 -5 6989.79 880.412 6
15 -7 -5 7364.76 878.849 6
7 -15 -5 7313.16 905.898 6
-15 7 -5 6907.84 872.99 10
15 7 -6 1312.68 395.469 6
15 -7 -6 1754.18 451.025 6
7 -15 -6 518.151 261.301 6
-15 7 -6 1138.05 340.931 10
15 -7 -7 64.4933 193.234 6
-15 7 7 298.55 315.536 4
7 -15 -7 -648.032 307.255 6
7 -15 7 -37.2372 285.74 5
-15 7 8 15.0139 162.282 4
15 -7 -8 59.0482 192.744 6
7 -15 -8 261.292 232.643 6
-7 15 8 -180.797 282.234 4
7 -15 8 433.754 411.025 5
-7 -15 8 529.47 369.725 5
-15 7 9 -144.754 157.611 4
-7 15 9 -492.848 269.413 4
7 -15 9 231.926 271.593 5
-7 -15 9 -348.697 196.008 5
-15 7 10 545.41 220.258 4
-7 15 10 529.361 241.678 4
7 -15 10 95.0057 168.746 5
-7 -15 10 2.64193 207.833 5
-7 15 11 -25.9432 134.525 4
-7 -15 11 -219.1 211.224 5
15 8 0 129.389 236.643 6
15 -8 0 103.739 223.137 6
8 -15 0 -148.446 281.077 6
-15 8 0 -43.6417 214.196 10
15 8 1 -485.041 297.108 6
15 8 -1 -158.374 228.966 6
15 -8 1 83.8133 194.332 6
15 -8 -1 132.267 243.9 6
8 -15 1 26.2124 210.731 6
8 -15 -1 -362.62 242.518 6
-15 8 1 -397.127 299.707 10
-15 8 -1 356.327 261.92 10
15 8 2 2674.02 564.667 6
15 8 -2 3201.27 625.466 6
15 -8 2 2996.99 556.916 6
15 -8 -2 2938.97 578.5 6
8 -15 2 3291.61 577.02 6
8 -15 -2 3839.83 691.012 6
-15 8 2 3577.71 653.206 10
-15 8 -2 2408.73 547.377 10
15 8 3 2218.77 521.672 6
15 8 -3 3993.41 695.574 6
15 -8 -3 2698.19 539.298 6
8 -15 -3 2330.08 578.931 6
-15 8 3 2473.56 596.645 10
-15 8 -3 2826.37 613.876 10
15 8 4 1106.59 355.794 6
15 8 -4 1304.33 430.157 6
15 -8 -4 1036.62 399.727 6
8 -15 -4 1474.42 472.536 6
-15 8 4 1030.26 406.389 10
-15 8 -4 1657.77 443.846 10
15 8 5 -353.645 247.432 6
15 8 -5 29.6462 241.914 6
15 -8 -5 -93.4537 262.549 6
8 -15 -5 -91.6837 236.276 6
-15 8 -5 -23.5653 237.73 10
15 8 -6 219.274 189.754 6
15 -8 -6 -287.155 282.78 6
-15 8 6 -248.94 271.889 4
8 -15 -6 -265.851 343.771 6
-15 8 -6 287.3 231.335 10
15 -8 -7 589.686 291.885 6
-15 8 7 547.39 294.491 4
8 -15 -7 -73.9753 225.145 6
-8 15 7 -251.563 246.487 4
15 -8 -8 505.554 242.391 6
-15 8 8 727.173 313.795 4
8 -15 -8 310.587 222.495 6
-8 15 8 435.758 249.648 4
8 -15 8 350.957 255.848 5
-8 -15 8 490.34 321.182 5
-15 8 9 -285.013 228.198 4
-8 15 9 -238.13 226.209 4
8 -15 9 397.081 192.04 5
-8 -15 9 -341.366 238.738 5
-15 8 10 422.631 210.862 4
-8 15 10 316.814 204.47 4
8 -15 10 59.8661 146.15 5
-8 15 11 400.098 189.855 4
15 9 0 540.706 291.812 6
15 -9 0 378.327 255.754 6
9 -15 0 93.5149 269.023 6
-15 9 0 685.722 347.086 10
15 9 1 256.864 247.352 6
15 9 -1 127.859 243.365 6
15 -9 1 104.512 285.544 6
15 -9 -1 487.55 266.577 6
9 -15 1 64.1652 300.174 6
9 -15 -1 72.4895 270.722 6
-15 9 1 -33.9907 217.563 10
-15 9 -1 170.872 269.976 10
15 9 2 140.877 282.351 6
15 9 -2 207.322 297.821 6
15 -9 2 -141.911 222.158 6
15 -9 -2 -98.2894 270.959 6
9 -15 2 -301.336 290.701 6
9 -15 -2 230.748 322.313 6
-15 9 2 -3.64666 258.423 10
15 9 3 814.015 345.916 6
15 9 -3 236.669 226.156 6
15 -9 -3 292.804 250.629 6
9 -15 -3 507.858 364.405 6
-15 9 3 -22.3162 200.847 10
-15 9 -3 388.584 294.839 10
15 9 4 127.979 196.311 6
15 9 -4 166.155 239.815 6
-15 9 4 -82.0485 254.8 10
15 -9 -4 76.1517 214.286 6
9 -15 -4 15.9528 266.645 6
-15 9 -4 524.216 338.017 10
15 9 5 46.7153 183.088 6
15 9 -5 444.871 277.964 6
15 -9 -5 262.324 290.41 6
-15 9 5 153.353 262.653 4
9 -15 -5 4.20535 264.871 6
-15 9 -5 193.395 235.308 10
15 9 -6 444.571 262.195 6
15 -9 -6 132.46 220.717 6
-15 9 6 573.933 278.107 4
9 -15 -6 74.3687 212.439 6
-15 9 -6 516.969 290.748 10
15 -9 -7 -136.052 228.31 6
-15 9 7 -336.24 223.168 4
9 -15 -7 -48.0961 223.829 6
-9 15 7 -411.509 268.1 4
-9 -15 7 -381.752 268.287 5
15 -9 -8 103.078 168.826 6
-15 9 8 -18.303 188.978 4
9 -15 -8 -95.9696 203.753 6
-9 15 8 125.068 212.517 4
-9 -15 8 469.743 266.143 5
-15 9 9 -307.375 205.768 4
-9 15 9 179.09 173.34 4
-9 -15 9 -25.9876 188.701 5
-15 9 10 457.497 188.074 4
-9 15 10 116.786 193.495 4
-9 -15 10 260.354 228.01 5
-9 15 11 -281.348 147.729 4
15 10 0 -61.2242 236.152 6
15 -10 0 27.3284 230.635 6
10 -15 0 -146.909 227.182 6
-15 10 0 -271.221 266.685 10
15 10 1 1456.7 436.764 6
15 10 -1 1705.83 447.211 6
15 -10 1 1240.65 383.016 6
15 -10 -1 1330.56 435.936 6
10 -15 1 1661.65 460.312 6
10 -15 -1 2085.34 542.942 6
-15 10 1 1666.02 482.185 10
-15 10 -1 1136.3 391.908 10
15 10 2 -311.176 271.336 6
15 10 -2 -175.387 289.327 6
15 -10 2 110.619 225.924 6
15 -10 -2 -122.893 248.891 6
10 -15 2 -254.645 329.796 6
-15 10 -2 4.43829 226.759 10
10 -15 -2 -245.072 319.365 6
-15 10 2 30.8924 231.057 10
15 10 3 -348.339 292.732 6
15 10 -3 210.836 240.412 6
15 -10 -3 -120.675 254.693 6
10 -15 -3 -438.814 329.743 6
-15 10 3 -312.929 201.086 10
-15 10 -3 -35.0661 233.315 10
15 10 4 195.331 218.439 6
15 10 -4 -333.74 263.712 6
15 -10 -4 -36.6236 234.812 6
10 -15 -4 -168.3 323.458 6
-15 10 4 144.724 251.309 4
-15 10 4 359.674 269.795 10
-15 10 -4 -91.01 214.076 10
15 10 -5 1041.91 350.2 6
15 -10 -5 962.159 346.479 6
10 -15 -5 619.412 347.389 6
-15 10 5 571.424 272.486 4
-15 10 -5 349.424 254.516 10
15 10 -6 -3.15806 208.762 6
15 -10 -6 562.837 263.193 6
-15 10 6 752.67 294.638 4
10 -15 -6 331.777 229.52 6
-15 10 -6 902.245 328.788 10
15 -10 -7 254.981 176.131 6
-15 10 7 -174.857 215.755 4
10 -15 -7 240.964 216.382 6
-10 15 7 -198.292 211.825 4
-10 15 -7 -431.514 240.124 10
-10 -15 7 161.379 212.032 5
15 -10 -8 -146.686 178.693 6
-15 10 8 229.173 176.137 4
10 -15 -8 217.602 195.064 6
-10 15 8 -261.172 224.632 4
-10 -15 8 -208.743 272.662 5
-15 10 9 321.738 177.719 4
-10 15 9 261.253 237.998 4
-10 -15 9 280.134 234.541 5
-10 15 10 434.954 199.701 4
15 11 0 312.885 264.878 6
15 -11 0 104.474 226.016 6
11 -15 0 325.265 266.03 6
-15 11 0 215.259 241.271 10
15 11 1 -19.7112 209.589 6
15 11 -1 613.74 349.236 6
15 -11 1 82.8736 205.138 6
15 -11 -1 -128.461 257.116 6
11 -15 1 138.576 246.184 6
11 -15 -1 581.876 323.909 6
-15 11 1 -504.901 317.576 10
-15 11 -1 186.451 231.755 10
15 11 2 -116.514 192.226 6
15 11 -2 -198.603 261.741 6
15 -11 2 575.695 296.49 6
15 -11 -2 -78.494 281.332 6
11 -15 2 -145.522 191.777 6
11 -15 -2 -326.457 309.693 6
-15 11 2 137.972 218.943 10
-15 11 -2 -84.9795 238.831 10
15 11 3 -89.0995 215.12 6
15 11 -3 -4.66387 214.403 6
15 -11 -3 -214.646 247.285 6
11 -15 -3 1.69518 242.992 6
-15 11 3 -325.901 310.582 10
-15 11 -3 -14.3961 230.089 10
15 11 -4 362.226 281.068 6
15 -11 -4 -56.6079 207.645 6
11 -15 -4 199.039 203.604 6
-15 11 4 388.569 331.418 4
-15 11 4 431.585 268.823 10
-15 11 -4 224.997 274.644 10
-11 15 4 554.553 289.002 10
15 11 -5 130.021 198.344 6
15 -11 -5 258.197 246.844 6
11 -15 -5 284.224 200.263 6
-15 11 5 -58.061 169.111 4
-15 11 -5 608.835 253.805 10
15 11 -6 -126.129 156.56 6
15 -11 -6 -76.308 198.877 6
11 -15 -6 123.677 197.168 6
-15 11 6 189.071 168.074 4
-11 15 6 273.923 260.586 4
-15 11 -6 15.7989 202.928 10
-11 15 -6 -108.79 267.852 10
15 -11 -7 -312.078 225.364 6
-15 11 7 28.5977 191.967 4
11 -15 -7 54.5433 207.792 6
-11 15 7 138.429 180.135 4
-11 15 -7 -30.7043 200.112 10
-11 -15 7 455.848 267.547 5
15 -11 -8 -68.4708 191.338 6
-15 11 8 -0.47352 175.401 4
11 -15 -8 10.6369 149.122 6
-11 15 8 119.777 168.577 4
-11 -15 8 -196.506 215.699 5
-15 11 9 -164.689 162.404 4
-11 15 9 -30.4081 176.568 4
-11 -15 9 -278.13 221.471 5
-11 15 10 -64.9103 103.35 4
15 12 0 175.412 232.533 6
15 -12 0 -69.0774 249.791 6
12 -15 0 -159.414 236.645 6
-15 12 0 465.512 334.337 10
15 12 1 149.82 181.056 6
15 12 -1 -392.579 257.818 6
15 -12 1 123.767 176.982 6
15 -12 -1 -135.902 198.302 6
12 -15 1 198.665 188.667 6
12 -15 -1 335.44 271.4 6
-15 12 1 -138.885 250.198 10
-15 12 -1 95.1713 199.3 10
15 12 2 319.401 220.391 6
15 12 -2 192.195 253.589 6
15 -12 2 -363.981 295.457 6
15 -12 -2 -421.858 278.014 6
12 -15 2 -162.394 187.844 6
12 -15 -2 -29.2536 250.392 6
-15 12 2 269.639 241.553 10
-15 12 -2 -71.1705 238.494 10
-12 15 2 -278.561 284.594 10
15 12 -3 -659.971 302.592 6
15 -12 -3 245.531 278.739 6
12 -15 -3 69.6213 261.764 6
-15 12 3 -61.707 186.882 10
-15 12 -3 -108.198 234.836 10
-12 15 3 9.00113 231.599 10
15 12 -4 154.402 183.039 6
15 -12 -4 64.0833 201.053 6
12 -15 -4 265.388 234.376 6
-15 12 4 -206.124 174.67 4
-15 12 4 -154.44 234.069 10
-15 12 -4 214.082 224.82 10
-12 15 4 -124.584 213.535 10
15 12 -5 262.959 196.298 6
15 -12 -5 400.63 261.753 6
12 -15 -5 -145.971 220.523 6
-15 12 5 -237.99 176.186 4
-15 12 -5 37.0843 191.569 10
-12 15 -5 -254.415 248.344 10
15 -12 -6 628.116 268.681 6
12 -15 -6 742.645 288.677 6
-15 12 6 804.73 293.627 4
-12 15 6 178.837 221.741 4
-15 12 -6 182.124 222.62 10
-12 15 -6 969.688 364.241 10
15 -12 -7 274.368 210.748 6
-15 12 7 16.6824 181.657 4
12 -15 -7 504.684 215.883 6
-12 15 7 278.311 210.259 4
-12 -15 7 242.53 251.895 5
15 -12 -8 -53.1679 129.282 6
-15 12 8 27.6334 137.412 4
12 -15 -8 47.9727 149.39 6
-12 15 8 -83.0431 181.953 4
-12 -15 8 111.9 203.768 5
-12 15 9 -25.7488 132.728 4
15 13 0 1629.8 432.202 6
15 -13 0 1276.26 372.506 6
13 -15 0 103.667 286.857 6
-15 13 0 1031.85 335.637 10
-13 15 0 854.861 353.298 10
15 -13 1 96.1043 189 6
15 -13 -1 -95.692 254.36 6
13 -15 1 51.6406 186.319 6
13 -15 -1 -392.29 369.381 6
-15 13 1 176.203 208.503 10
-15 13 -1 167.974 226.11 10
-13 15 1 206.348 244.228 10
-13 15 -1 88.6173 210.167 10
15 13 -2 -30.7584 220.556 6
15 -13 2 102.912 170.468 6
15 -13 -2 -186.246 270.863 6
13 -15 2 210.867 201.578 6
13 -15 -2 -250.746 273.164 6
-15 13 2 61.6382 221.594 10
-15 13 -2 -106.894 221.561 10
-13 15 2 20.759 182.198 10
-13 15 -2 -38.5911 222.019 10
15 13 -3 307.534 255.733 6
15 -13 -3 354.787 280.421 6
13 -15 -3 478.085 289.513 6
-15 13 3 41.3655 195.362 10
-15 13 -3 27.5277 222.438 10
-13 15 3 422.173 301.678 10
-13 15 -3 -149.129 238.787 10
15 -13 -4 -151.193 224.498 6
13 -15 -4 598.738 309.74 6
-15 13 4 -9.64431 208.271 4
-15 13 4 155.697 178.865 10
-13 15 4 -119.154 169.781 10
-15 13 -4 4.3906 195.253 10
-13 15 -4 538.204 281.933 10
15 -13 -5 334.774 276.385 6
13 -15 -5 18.6724 193.16 6
-15 13 5 -31.5608 166.76 4
-13 15 5 57.7941 166.548 4
-15 13 -5 399.853 287.583 10
-13 15 -5 202.145 183.53 10
-15 13 -6 249.916 179.521 10
15 -13 -6 551.622 240.089 6
13 -15 -6 420.474 241.333 6
-15 13 6 519.972 241.436 4
-13 15 6 584.129 238.359 4
-13 15 -6 392.166 206.542 10
15 -13 -7 302.343 181.932 6
13 -15 -7 733.915 236.519 6
-15 13 7 152.323 148.143 4
-13 15 7 258.911 217.024 4
-13 -15 7 92.4956 177.745 5
15 -13 -8 200.17 141.385 6
-15 13 8 238.986 151.161 4
13 -15 -8 -147.3 128.696 6
-13 15 8 254.956 182.066 4
15 -14 0 224.545 225.829 6
14 -15 0 -40.9186 188.631 6
-15 14 0 -300.3 240.023 10
-14 15 0 -73.0546 201.079 10
15 -14 1 70.8863 214.011 6
14 -15 1 124.2 175.005 6
15 -14 -1 386.319 298.599 6
14 -15 -1 99.8378 194.865 6
-15 14 1 161.176 218.345 10
-15 14 -1 -295.051 231.808 10
-14 15 1 367.09 266.012 10
-14 15 -1 475.19 273.14 10
15 -14 -2 596.822 303.462 6
14 -15 -2 5.49748 192.862 6
-15 14 2 -63.275 186.659 10
-14 15 2 148.91 222.622 10
-15 14 -2 -58.4122 228.973 10
-14 15 -2 67.6695 224.131 10
15 -14 -3 438.261 266.223 6
14 -15 -3 -169.748 248.162 6
-15 14 3 -418.514 227.141 10
-14 15 3 254.631 230.344 10
-15 14 -3 86.2564 220.427 10
-14 15 -3 -93.1832 201.208 10
15 -14 -4 -6.14779 194.135 6
14 -15 -4 -221.45 245.101 6
-15 14 4 -475.179 261.678 4
-14 15 4 -335.261 209.095 4
-15 14 4 -3.22292 174.158 10
-14 15 4 -190.544 202.648 10
-15 14 -4 -434.246 278.369 10
-14 15 -4 -164.29 203.22 10
15 -14 -5 -127.916 212.09 6
14 -15 -5 99.2062 171.97 6
-15 14 5 27.1956 151.323 4
-14 15 5 -14.4294 191.116 4
-14 15 -5 230.747 205.159 10
15 -14 -6 -241.441 206.881 6
14 -15 -6 -110.549 173.862 6
-15 14 6 58.7734 166.043 4
-14 15 6 487.291 190.26 4
-15 14 -6 127.406 140.574 10
-14 15 -6 -0.47692 160.829 10
-14 -15 6 172.679 177.918 5
15 -14 -7 166.883 147.419 6
14 -15 -7 249.716 162.348 6
-15 14 7 178.072 145.205 4
-14 15 7 -215.724 138.01 4
15 -15 0 -23.2031 162.313 6
-15 15 0 259.289 234.895 10
15 -15 1 26.3247 181.088 6
15 -15 -1 -5.95891 220.639 6
-15 15 1 -14.4413 168.385 10
-15 15 -1 246.242 205.302 10
15 -15 -2 -131.034 213.079 6
-15 15 2 147.108 182.68 10
-15 15 -2 -111.363 176.508 10
15 -15 -3 -1.17018 219.514 6
-15 15 3 72.8281 176.926 4
-15 15 3 204.182 154.212 10
-15 15 -3 142.905 179.174 10
15 -15 -4 157.769 165.079 6
-15 15 4 -28.6381 169.323 4
-15 15 -4 251.205 185.12 10
15 -15 -5 2.40577 166.762 6
-15 15 5 -140.749 138.721 4
-15 15 -5 265.646 194.309 10
15 -15 -6 145.982 151.069 6
-15 15 6 -254.3 154.957 4
0 16 0 -163.131 350.663 7
16 0 0 123.496 245.474 6
16 0 0 -116.531 557.458 2
0 16 1 7443.83 1284.79 7
16 0 1 7573.61 888.892 6
16 0 -1 8591.17 942.349 6
16 0 1 8361.94 1425.28 2
16 0 -1 7144.21 1311.69 2
0 -16 -1 7701.17 1255.83 9
0 16 -1 6449.85 1275.38 8
0 16 1 5504.22 1129.34 8
-16 0 1 6575.26 1153.51 1
0 16 -1 9252.63 1474.6 7
0 16 -2 4390.66 1040.32 7
0 16 2 2800.97 754.61 7
16 0 2 3357.21 607.971 6
16 0 -2 3490.05 612.508 6
16 0 -2 3118.84 851.936 2
16 0 2 3122.99 863.785 2
0 -16 -2 2270.91 782.943 9
0 16 2 2475.38 810.607 8
-16 0 2 2049.63 700.142 1
16 0 3 -93.398 188.858 6
16 0 -3 -92.1572 212.994 6
16 0 -4 1241.18 418.228 6
16 0 -5 2226.24 516.675 6
0 -16 5 1788.52 532.224 5
16 0 -6 2702.14 548.236 6
0 -16 6 3162.59 667.528 5
16 0 -7 8739.94 905.484 6
0 -16 7 7166.02 1008.44 5
16 0 -8 3590.37 557.91 6
0 -16 -8 3643.66 607.589 6
0 -16 8 3749.81 739.153 5
0 -16 9 707.348 376.719 5
0 -16 10 305.241 217.419 5
0 -16 11 -73.5852 246.583 5
0 -16 12 352.904 196.349 5
-1 16 0 -461.023 357.157 7
1 16 0 298.33 477.424 7
16 1 0 -65.1559 240.916 6
16 -1 0 408.468 303.948 6
16 -1 0 186.055 438.127 2
16 1 0 691.316 404.311 2
-16 -1 0 -399.699 561.501 1
-1 16 0 202.202 449.548 8
1 16 0 -146.608 483.877 8
-1 16 -1 256.469 494.696 7
1 16 -1 1616.18 707.327 7
-1 16 1 -109.007 431.907 7
1 16 1 968.462 527.207 7
16 1 1 813.186 343.229 6
16 1 -1 392.704 239.052 6
16 -1 1 1059.55 379.38 6
16 -1 -1 781.509 306.545 6
16 1 -1 1465.09 575.2 2
16 -1 -1 1578.1 667.837 2
16 -1 1 310.127 285.915 2
16 1 1 814.094 369.457 2
1 -16 -1 1013.55 552.802 9
-1 -16 -1 675.936 349.708 9
-1 16 -1 917.685 573.292 8
1 16 -1 -33.2131 280.701 8
-1 16 1 585.504 503.455 8
1 16 1 469.692 485.879 8
-16 -1 1 240.699 471.186 1
1 16 -2 -46.2051 343.639 7
-1 16 2 175.171 270.281 7
1 16 2 -1127.17 691.841 7
16 1 2 210.025 255.706 6
16 -1 2 101.943 207.82 6
16 1 -2 156.674 286.077 6
16 -1 -2 -228.569 306.086 6
16 1 -2 790.993 665.689 2
16 -1 -2 334.17 382.55 2
16 -1 2 685.705 394.047 2
16 1 2 712.239 551.55 2
1 -16 -2 -60.5083 516.283 9
-1 -16 -2 3.71243 387.153 9
-1 16 2 -382.703 364.065 8
1 16 2 733.425 562.775 8
-16 -1 2 413.489 292.761 1
-1 16 -2 263.042 412.679 7
16 1 3 102.252 191.924 6
16 -1 3 466.42 306.283 6
16 1 -3 192.874 197.666 6
16 -1 -3 -86.5971 200.667 6
16 1 4 351.016 199.092 6
16 1 -4 904.932 333.682 6
16 -1 -4 827.502 346.407 6
1 -16 4 540.446 322.065 5
16 1 -5 380.175 268.561 6
16 -1 -5 422.727 195.064 6
1 -16 5 327.252 280.782 5
-1 -16 5 915.904 463.298 5
16 1 -6 -618.613 374.802 6
16 -1 -6 -29.7371 226.059 6
1 -16 6 254.109 305.637 5
-1 -16 6 -81.557 293.557 5
16 1 -7 -208.543 262.668 6
16 -1 -7 458.546 338.238 6
-1 16 7 89.6647 211.425 4
1 -16 7 -218.89 255.824 5
-1 -16 7 33.339 264.771 5
16 -1 -8 27.6079 166.643 6
1 -16 -8 -347.527 215.857 6
-1 -16 -8 299.951 223.074 6
1 -16 8 101.561 307.021 5
-1 -16 8 -59.8505 317.777 5
1 -16 9 -245.986 272.942 5
-1 -16 9 104.087 268.902 5
1 -16 10 -175.2 280.68 5
-1 -16 10 27.6272 215.17 5
1 -16 11 -5.38751 224.311 5
-1 -16 11 -146.291 185.078 5
1 -16 12 108.001 179.046 5
-1 -16 12 198.107 152.742 5
-2 16 0 3523.78 881.151 7
2 16 0 5092.01 1101.64 7
16 2 0 6447.59 820.953 6
16 -2 0 6110.71 809.087 6
16 -2 0 6940.99 1298.7 2
16 2 0 6195.53 1213.75 2
-2 -16 0 2488.58 783.549 9
-16 -2 0 3883.01 905.569 1
-2 16 0 3749.21 1049.15 8
2 16 0 3808.69 940.3 8
-2 16 1 287.896 370.242 7
2 16 -1 873.629 596.753 7
2 16 1 540.659 488.321 7
16 2 1 201.298 259.26 6
16 2 -1 -128.515 225.409 6
16 -2 1 136.794 179.571 6
16 -2 -1 -55.8958 247.096 6
16 -2 1 173.548 562.306 2
16 2 -1 110.787 308.635 2
16 -2 -1 -682.282 611.064 2
16 2 1 -164.67 493.123 2
-16 -2 -1 -197.997 245.088 1
2 -16 -1 -1674.59 641.9 9
-2 -16 -1 -1.75646 283.715 9
-16 -2 1 178.969 314.849 1
-2 16 -1 168.629 431.754 8
2 16 -1 483.975 278.12 8
-2 16 1 -556.346 552.011 8
2 16 1 -143.988 352.911 8
-2 16 -1 506.209 429.996 7
2 16 2 1125.74 620.01 7
16 2 2 864.651 332.288 6
16 2 -2 1527.62 474.628 6
16 -2 2 828.707 313.742 6
16 -2 -2 2410.4 537.484 6
2 -16 -2 852.815 489.477 9
-2 -16 -2 525.124 555.83 9
-16 -2 2 35.5019 237.32 1
-16 2 -2 34.7839 355.377 7
16 2 3 901.277 385.877 6
16 2 -3 887.94 349.157 6
16 -2 3 660.856 247.129 6
16 -2 -3 821.109 377.321 6
2 -16 3 480.133 302.439 5
16 2 4 -67.9903 186.503 6
16 2 -4 140.806 258.868 6
16 -2 -4 200.534 264.748 6
2 -16 4 140.775 267.727 5
16 2 -5 2055.71 480.405 6
16 -2 -5 2562.91 494.993 6
2 -16 5 2887.47 653.578 5
16 2 -6 7690.43 870.808 6
16 -2 -6 6987.39 824.152 6
2 -16 6 7410.52 1016.44 5
-2 -16 6 6690.2 1024.69 5
16 2 -7 4275.29 638.596 6
16 -2 -7 3605.81 604.341 6
-2 16 7 3494.01 619.106 4
2 -16 -7 4108.92 672.735 6
2 -16 7 2908.56 681.069 5
-2 -16 7 3574.5 723.846 5
16 -2 -8 2834.91 527.895 6
-2 16 8 3031.33 557.365 4
2 -16 -8 2171.12 483.362 6
2 -16 8 2794.74 634.675 5
-2 -16 8 2961.2 647.597 5
-2 16 9 709.831 274.053 4
2 -16 9 735.99 347.306 5
-2 -16 9 1235.19 447.865 5
2 -16 10 -464.22 284.605 5
-2 -16 10 39.3502 214.603 5
2 -16 11 368.732 244 5
-2 -16 11 -215.145 247.778 5
2 -16 12 434.414 210.775 5
-2 -16 12 -108.016 166.573 5
-3 16 0 159.897 284.842 7
3 16 0 218.384 441.296 7
16 3 0 219.171 277.159 6
16 -3 0 -1.59711 233.675 6
16 -3 0 -404.806 517.328 2
16 3 0 390.769 396.886 2
-16 -3 0 -685.939 417.802 1
-3 -16 0 -2216.34 721.924 9
-3 16 0 193.165 324.721 8
3 16 0 -1709.6 673.062 8
-3 16 1 823.848 593.177 7
3 16 1 -1.87481 311.035 7
16 3 1 99.1132 204.191 6
16 3 -1 281.878 196.32 6
16 3 1 -74.1479 290.145 2
16 -3 1 411.006 304.458 6
16 -3 -1 182.425 200.028 6
16 3 -1 -281.661 335.836 2
16 -3 -1 602.371 366.632 2
16 -3 1 407.355 395.908 2
-16 -3 -1 -1911.54 626.504 1
-3 -16 -1 155.493 410.208 9
-16 -3 1 489.338 501.575 1
-3 16 1 1147.95 641.368 8
-3 16 -1 -1206.17 581.8 7
16 3 2 361.215 276.71 6
16 3 -2 265.258 264.607 6
16 -3 2 243.013 228.632 6
16 -3 -2 405.564 245.579 6
16 3 3 760.142 297.181 6
16 3 -3 1536.12 439.665 6
16 -3 3 948.018 355.631 6
16 -3 -3 1150.25 393.336 6
16 3 4 3700.8 582.001 6
16 3 -4 2560.05 579.355 6
16 -3 -4 2937.49 569.368 6
3 -16 4 3353.43 663.341 5
16 3 -5 872.91 382.048 6
16 -3 -5 1136.67 404.542 6
3 -16 5 1524.69 432.877 5
16 3 -6 1262.58 422.253 6
16 -3 -6 1113.03 381.848 6
3 -16 -6 1153.23 430.739 6
3 -16 6 1311.64 489.929 5
-3 -16 6 1136.37 490.031 5
16 3 -7 -2.83378 228.97 6
16 -3 -7 427.907 278.589 6
-3 16 7 -209.269 231.299 4
3 -16 -7 463.775 300.091 6
3 -16 7 300.714 333.896 5
-3 -16 7 722.703 417.601 5
16 -3 -8 -49.8476 213.793 6
-3 16 8 18.7116 192.375 4
3 -16 -8 285.57 220.273 6
3 -16 8 170.932 277.104 5
-3 -16 8 283.921 281.085 5
-3 16 9 940.133 321.679 4
3 -16 9 512.701 298.481 5
-3 -16 9 1336.04 429.433 5
-3 16 10 1031.77 300.601 4
3 -16 10 512.718 274.832 5
-3 -16 10 1072.06 362.61 5
3 -16 11 236.168 190.038 5
-3 -16 11 99.7337 204.162 5
16 4 0 -108.673 203.087 6
16 -4 0 121.353 260.057 6
-16 4 0 -113.334 219.518 10
16 4 1 1607.28 476.108 6
16 4 -1 768.516 351.307 6
16 -4 1 1111.17 383.274 6
16 -4 -1 935.964 341.99 6
-16 4 1 628.928 365.102 10
-16 4 -1 324.616 241.424 10
16 4 -2 -131.654 228.425 6
16 -4 -2 23.5023 240.134 6
-16 4 -2 -495.201 304.254 10
16 4 3 -89.3989 229.79 6
16 4 -3 169.977 215.96 6
16 -4 3 109.162 239.525 6
16 -4 -3 409.506 267.399 6
4 -16 3 -292.587 299.816 6
-16 4 -3 -281.003 227.801 10
16 4 4 677.936 314.097 6
16 4 -4 188.94 247.067 6
16 -4 -4 269.66 248.784 6
16 4 -5 433.084 277.676 6
16 -4 -5 562.716 297.48 6
4 -16 -5 447.671 316.129 6
4 -16 5 840.622 364.144 5
16 4 -6 1570.04 419.505 6
16 -4 -6 1776.88 451.935 6
4 -16 -6 2115.78 528.121 6
4 -16 6 1701.01 495.434 5
16 -4 -7 4849.04 664.793 6
16 4 -7 3587.05 583.307 6
4 -16 -7 4180.61 652.885 6
4 -16 7 3900.75 701.673 5
-4 -16 7 4295.48 763.835 5
-4 16 7 4082.8 662.711 4
16 -4 -8 2220.34 466.131 6
-4 16 8 2086.52 472.611 4
4 -16 -8 1586.13 387.126 6
4 -16 8 975.803 400.643 5
-4 -16 8 2194.76 554.976 5
-4 16 9 443.766 268.975 4
4 -16 9 134.634 238.534 5
-4 -16 9 834.532 382.038 5
-4 16 10 96.7266 161.588 4
4 -16 10 349.315 265.389 5
-4 -16 10 105.957 223.924 5
4 -16 11 113.491 167.145 5
-4 -16 11 -150.219 210.636 5
16 5 0 335.458 335.796 6
16 -5 0 -58.9518 247.075 6
-16 5 0 170.038 253.823 10
16 5 1 2294.94 518.675 6
16 5 -1 2012.66 518.865 6
-16 5 -1 1633.11 513.102 10
16 -5 1 1703.09 448.813 6
16 -5 -1 1512.79 433.322 6
5 -16 1 2435.5 592.597 6
-16 5 1 1920.65 540.061 10
16 5 2 523.715 253.19 6
16 5 -2 617.516 316.832 6
16 -5 2 261.346 186.115 6
16 -5 -2 349.424 312.866 6
5 -16 2 307.284 234.413 6
-16 5 2 857.943 336.852 10
-16 5 -2 261.021 237.032 10
16 5 3 2334.45 491.788 6
16 5 -3 3074.57 588.927 6
16 -5 3 3027.22 552.056 6
16 -5 -3 2416.4 508.714 6
5 -16 -3 2430.81 591.744 6
-16 5 -3 2412.02 524.618 10
16 -5 -4 5064.92 743.756 6
16 5 4 4292.71 645.858 6
16 5 -4 4431.58 694.706 6
5 -16 -4 4605.89 767.475 6
-16 5 -4 4269.92 707.982 10
16 5 -5 6996.41 887.821 6
16 -5 -5 7080.5 864.822 6
5 -16 -5 7973.81 938.192 6
16 5 -6 2531.59 535.356 6
16 -5 -6 2772.45 549.622 6
5 -16 -6 2473.23 560.66 6
5 -16 6 2463.13 573.066 5
16 5 -7 -248.956 237.257 6
16 -5 -7 130.298 191.795 6
5 -16 -7 159.439 238.978 6
-5 16 7 38.468 230.884 4
5 -16 7 34.4589 199.831 5
-5 -16 7 49.9253 221.541 5
16 -5 -8 377.769 214.703 6
5 -16 -8 252.199 192.029 6
-5 16 8 291.033 270.003 4
5 -16 8 126.572 233.73 5
-5 -16 8 274.325 276.709 5
-5 16 9 2053.12 435.154 4
5 -16 9 1798.76 468.161 5
-5 -16 9 2512.9 539.276 5
-5 16 10 867.587 309.43 4
5 -16 10 978.858 327.271 5
-5 -16 10 1587.65 428.507 5
-5 16 11 396.363 191.715 4
5 -16 11 187.227 199.275 5
-5 -16 11 224.89 212.18 5
16 6 0 2140.93 517.918 6
16 -6 0 1922.86 507.37 6
6 -16 0 2733.97 574.118 6
-16 6 0 2375.15 573.681 10
16 6 1 103.425 247.095 6
16 6 -1 166.499 247.43 6
16 -6 1 -183.117 274.245 6
16 -6 -1 108.095 220.642 6
6 -16 1 157.932 340.099 6
6 -16 -1 329.808 356.878 6
-16 6 1 -71.711 313.795 10
-16 6 -1 -138.603 225.093 10
16 6 2 364.198 288.107 6
16 6 -2 306.58 319.885 6
16 -6 2 552.246 318.538 6
16 -6 -2 370.259 257.314 6
6 -16 2 -58.3515 270.233 6
6 -16 -2 417.304 317.552 6
-16 6 2 393.223 305.949 10
-16 6 -2 250.281 288.982 10
16 6 3 972.43 380.683 6
16 6 -3 1068.51 377.232 6
16 -6 3 1002.76 296.355 6
16 -6 -3 1257.71 400.74 6
6 -16 -3 985.181 408.877 6
-16 6 -3 924.306 385.263 10
16 6 4 27.0732 214.057 6
16 6 -4 209.607 310.736 6
16 -6 -4 586.304 307.434 6
6 -16 -4 18.0328 271.223 6
-16 6 -4 211.511 257.385 10
16 6 -5 56.4175 261.053 6
16 -6 -5 115.574 286.316 6
6 -16 -5 114.703 230.499 6
16 6 -6 1451.36 403.024 6
16 -6 -6 1264.49 394.35 6
6 -16 -6 639.414 359.583 6
16 6 -7 294.909 229.822 6
16 -6 -7 1062.08 322.868 6
6 -16 -7 656.651 299.715 6
-6 16 7 1090.83 380.184 4
6 -16 7 161.617 275.07 5
-6 -16 7 432.03 323.765 5
16 -6 -8 120.77 163.242 6
6 -16 -8 296.747 216.608 6
-6 16 8 -63.0445 205.198 4
6 -16 8 234.205 277.438 5
-6 -16 8 421.824 273.142 5
-6 16 9 116.399 173.245 4
6 -16 9 116.018 223.276 5
-6 -16 9 -86.6829 209.811 5
-6 16 10 333.341 211.322 4
6 -16 10 188.81 178.402 5
-6 -16 10 38.7251 179.492 5
-6 16 11 108.593 161.74 4
-6 -16 11 277.4 183.973 5
16 7 0 -248.587 237.443 6
16 -7 0 19.3057 235.123 6
7 -16 0 -93.6289 293.904 6
-16 7 0 111.007 276.457 10
16 7 1 181.895 215.434 6
16 7 -1 -57.5687 270.406 6
16 -7 1 198.317 247.734 6
16 -7 -1 230.083 242.402 6
7 -16 1 -83.408 215.955 6
7 -16 -1 -238.702 297.431 6
-16 7 1 63.9625 236.652 10
-16 7 -1 -52.9722 307.341 10
16 7 2 3192.31 614.705 6
16 7 -2 2600.84 561.322 6
16 -7 2 3359.16 592.037 6
16 -7 -2 4127.64 686.139 6
7 -16 2 2416.92 505.6 6
7 -16 -2 3243.55 618.532 6
-16 7 2 3111.2 643.135 10
-16 7 -2 3051.65 633.915 10
16 7 -3 4501.99 732.646 6
16 7 3 3692.77 604.452 6
16 -7 -3 4005.62 673.796 6
7 -16 -3 3746.38 690.326 6
-16 7 3 4230.99 734.81 10
-16 7 -3 3779.19 675.46 10
16 7 4 5350.03 711.931 6
16 7 -4 5703.85 809.417 6
16 -7 -4 6505.84 825.39 6
7 -16 -4 5340.33 811.52 6
-16 7 -4 5538.64 791.757 10
16 7 5 6210.99 723.443 6
16 7 -5 6837.56 842.751 6
16 -7 -5 6705.47 819.358 6
7 -16 -5 7382.46 888.681 6
-16 7 -5 5627.93 781.737 10
16 7 -6 2904.13 530.606 6
16 -7 -6 2576.06 532.208 6
7 -16 -6 3359.18 626.056 6
16 -7 -7 187.627 175.764 6
7 -16 -7 256.837 197.713 6
-7 16 7 219.535 245.599 4
-7 -16 7 243.4 287.238 5
16 -7 -8 570.851 214.153 6
7 -16 -8 1431.4 363.056 6
-7 16 8 1108.06 346.1 4
7 -16 8 924.278 362.067 5
-7 -16 8 875.432 376.092 5
-7 16 9 1115.85 331.645 4
7 -16 9 285.784 205.592 5
-7 16 10 791.911 263.776 4
7 -16 10 368.547 209.369 5
-7 -16 10 1192.36 366.091 5
16 8 0 4160.47 680.105 6
16 -8 0 4270.11 667.454 6
8 -16 0 4496.35 730.055 6
-16 8 0 3594.49 685.908 10
16 8 1 659.687 285.272 6
16 8 -1 658.024 292.68 6
16 -8 1 219.418 202.528 6
16 -8 -1 1114.74 423.621 6
8 -16 1 551.468 300.414 6
8 -16 -1 211.903 321.449 6
-16 8 1 491.115 323.56 10
-16 8 -1 355.222 261.537 10
16 8 2 577.514 325.597 6
16 8 -2 -0.82545 241.256 6
16 -8 2 262.507 218.894 6
16 -8 -2 112.921 231.198 6
8 -16 2 -2.32426 188.629 6
8 -16 -2 220.011 305.709 6
-16 8 2 59.2342 229.687 10
-16 8 -2 154.389 209.262 10
16 8 3 37.7561 195.263 6
16 8 -3 154.13 299.488 6
16 -8 -3 -15.1014 205.134 6
8 -16 -3 593.422 334.949 6
-16 8 3 240.304 259.518 10
-16 8 -3 320.248 275.325 10
16 8 4 688.878 294.84 6
16 8 -4 485.416 285.163 6
16 -8 -4 79.5557 255.509 6
8 -16 -4 194.29 293.683 6
-16 8 -4 68.8007 206.188 10
16 8 5 379.902 241.313 6
16 8 -5 734.643 298.18 6
16 -8 -5 444.577 315.363 6
8 -16 -5 469.491 297.134 6
-16 8 -5 230.973 254.644 10
16 8 -6 243.131 282.822 6
16 -8 -6 -115.631 221.222 6
8 -16 -6 -277.894 234.696 6
16 -8 -7 210.293 222.177 6
8 -16 -7 -217.706 249.462 6
-8 16 7 170.325 223.041 4
-8 -16 7 -43.2036 250.444 5
16 -8 -8 136.447 177.299 6
8 -16 -8 -108.654 176.935 6
-8 16 8 37.0597 180.312 4
-8 -16 8 -121.899 240.258 5
-8 16 9 195.656 206.25 4
-8 -16 9 267.737 203.433 5
-8 16 10 50.8812 143.89 4
-8 -16 10 -112.648 180.46 5
16 9 0 -361.261 289.659 6
16 -9 0 60.8147 259.762 6
9 -16 0 380.376 310.282 6
-16 9 0 203.43 273.415 10
16 9 1 4378.07 670.148 6
16 9 -1 4325.56 689.633 6
16 -9 1 4592.3 689.387 6
16 -9 -1 4600.83 705.718 6
9 -16 -1 5193.43 770.045 6
9 -16 1 4263.14 660.013 6
-16 9 1 4422.69 713.159 10
-16 9 -1 4537.5 731.346 10
16 9 2 1886.39 459.163 6
16 9 -2 1725.59 500.454 6
16 -9 2 2175.43 457.958 6
16 -9 -2 1826.83 478.688 6
9 -16 2 2625.46 512.729 6
9 -16 -2 2612.68 551.169 6
-16 9 -2 1651.22 473.562 10
-16 9 2 2227.47 533.707 10
16 9 3 2635.71 526.534 6
16 9 -3 2521.22 552.333 6
16 -9 -3 2790.59 565.646 6
9 -16 -3 3027.96 630.552 6
-16 9 3 2586.75 545.854 10
-16 9 -3 2785.62 572.367 10
16 9 4 2003.38 437.917 6
16 9 -4 2737.22 575.827 6
16 -9 -4 3034.03 584.017 6
9 -16 -4 2473.18 566.987 6
-16 9 -4 1378.73 420.846 10
16 9 -5 1667.67 419.886 6
16 -9 -5 1904.68 450.867 6
9 -16 -5 2612.92 554.746 6
-16 9 -5 1303.62 389.05 10
16 9 -6 652.879 285.508 6
16 -9 -6 949.291 310.972 6
9 -16 -6 211.961 202.061 6
16 -9 -7 91.213 226.109 6
9 -16 -7 -271.887 256.673 6
-9 16 7 222.179 247.695 4
-9 -16 7 179.809 245.752 5
16 -9 -8 -91.4721 166.656 6
9 -16 -8 260.994 242.899 6
-9 16 8 389.176 252.886 4
-9 -16 8 55.0844 185.378 5
-9 16 9 1176.63 323.228 4
-9 -16 9 1643.88 379.759 5
-9 16 10 791.755 231.881 4
16 10 0 212.81 212.377 6
16 -10 0 -91.8258 203.445 6
10 -16 0 -312.411 258.772 6
-16 10 0 -31.7043 206.766 10
16 10 1 1025.49 350.443 6
16 10 -1 898.779 357.671 6
16 -10 1 1080.65 340.431 6
16 -10 -1 845.047 375.086 6
10 -16 1 1098.27 335.997 6
10 -16 -1 877.439 383.729 6
-16 10 1 1134.06 373.397 10
-16 10 -1 930.923 349.315 10
16 10 2 740.208 313.778 6
16 10 -2 927.973 362.891 6
16 -10 2 680.576 285.752 6
16 -10 -2 1123.22 394.62 6
10 -16 2 1422.16 369.796 6
10 -16 -2 987.941 374.377 6
-16 10 2 895.957 365.627 10
-16 10 -2 638.349 320.362 10
16 10 3 747.61 275.195 6
16 10 -3 844.483 330.471 6
16 -10 -3 719.88 354.211 6
10 -16 -3 1429.13 406.774 6
-16 10 3 1193.85 376.124 10
-16 10 -3 1156.32 386.574 10
16 10 4 353.298 240.387 6
16 10 -4 136.048 213.154 6
16 -10 -4 397.902 286.773 6
10 -16 -4 421.93 276.57 6
-16 10 -4 269.491 238.94 10
-10 16 4 301.455 183.263 10
16 10 -5 109.525 188.349 6
16 -10 -5 -98.9083 257.498 6
10 -16 -5 318.167 228.992 6
-16 10 -5 135.305 210.508 10
16 10 -6 -7.2189 148.493 6
16 -10 -6 423.366 255.997 6
10 -16 -6 -274.208 266.934 6
-16 10 -6 407.713 232.554 10
16 -10 -7 1586 359.288 6
10 -16 -7 1336.73 326.53 6
-10 16 7 986.068 295.753 4
-10 16 -7 1083.69 331.471 10
-10 -16 7 1034 376.742 5
16 -10 -8 691.658 189.46 6
10 -16 -8 905.524 257.928 6
-10 16 8 82.9038 206.484 4
-10 -16 8 517.749 265.466 5
-10 16 9 164.233 157.119 4
-10 -16 9 303.701 205.628 5
16 11 0 -338.599 244.443 6
16 -11 0 -243.172 258.413 6
11 -16 0 -132.559 257.376 6
-16 11 0 52.9827 210.608 10
16 11 1 -211.336 243.683 6
16 11 -1 63.8095 214.556 6
16 -11 1 368.748 251.936 6
16 -11 -1 281.553 212.303 6
11 -16 1 -337.975 307.756 6
11 -16 -1 -0.80022 258.969 6
-16 11 1 -357.229 288.601 10
-16 11 -1 132.134 202.277 10
16 11 2 773.655 300.836 6
16 11 -2 1677.55 435.741 6
16 -11 2 1527.14 389.845 6
16 -11 -2 1588.05 426.133 6
11 -16 2 1089.9 341.458 6
11 -16 -2 1156.61 395.851 6
-16 11 2 625.877 287.551 10
-16 11 -2 1406.79 426.587 10
16 11 3 1268.15 350.882 6
16 11 -3 1009.52 345.317 6
16 -11 -3 1597.06 427.607 6
11 -16 -3 2077.71 466.96 6
-16 11 3 1781.03 440.833 10
-16 11 -3 1961.9 477.975 10
-11 16 3 1238.63 386.002 10
16 11 -4 1109.35 353.342 6
16 -11 -4 2068.87 449.256 6
11 -16 -4 1619.53 451.404 6
-16 11 -4 1202.12 362.252 10
-11 16 4 1219.93 348.334 10
16 11 -5 14.1348 176.787 6
16 -11 -5 259.185 217.461 6
11 -16 -5 -146.574 243.708 6
-16 11 -5 398.58 272.552 10
16 -11 -6 49.6087 173.802 6
-16 11 6 -225.039 159.822 4
11 -16 -6 -139.616 209.437 6
-11 16 6 203.321 216.636 4
-16 11 -6 160.148 218.599 10
-11 16 -6 418.228 217.616 10
16 -11 -7 100.834 175.18 6
-16 11 7 372.691 177.26 4
11 -16 -7 157.236 225.24 6
-11 16 7 606.196 260.87 4
-11 -16 7 -164.219 251.107 5
16 -11 -8 369.506 155.295 6
11 -16 -8 -28.5542 148.459 6
-11 16 8 379.071 182.066 4
-11 -16 8 106.958 195.097 5
-11 16 9 50.7294 121.462 4
16 12 0 3571.43 576.152 6
16 -12 0 3699.6 598.496 6
12 -16 0 3982.42 633.804 6
-16 12 0 3116.91 598.176 10
16 12 1 960.05 302.56 6
16 12 -1 1283.76 369.044 6
16 -12 1 675.911 285.229 6
16 -12 -1 1327.73 399.98 6
12 -16 1 910.357 344.607 6
12 -16 -1 1234.24 413.147 6
-16 12 1 1010.01 351.239 10
-16 12 -1 484.688 279.327 10
-12 16 1 1103.4 369.717 10
16 12 2 776.718 308.619 6
16 12 -2 1162.76 349.141 6
16 -12 2 912.2 308.296 6
16 -12 -2 372.644 300.792 6
12 -16 2 878.922 288.572 6
12 -16 -2 1005.09 364.732 6
-16 12 2 963.267 338.886 10
-16 12 -2 742.89 320.361 10
-12 16 2 646.01 317.676 10
16 12 -3 284.915 218.035 6
16 -12 -3 755.221 306.784 6
12 -16 -3 706.526 310.548 6
-16 12 3 781.006 289.056 10
-16 12 -3 688.894 314.884 10
-12 16 3 553.492 269.453 10
16 12 -4 -283.699 227.212 6
16 -12 -4 -286.855 239.436 6
12 -16 -4 197.831 211.962 6
-16 12 -4 342.226 251.192 10
-12 16 4 330.344 259.508 10
-12 16 -4 -207.828 223.354 10
16 -12 -5 505.513 260.695 6
12 -16 -5 224.861 227.138 6
-16 12 5 133.983 162.841 4
-16 12 -5 475.298 278.211 10
-12 16 -5 319.965 265.887 10
16 -12 -6 1308.21 336.393 6
-16 12 6 876.159 244.108 4
12 -16 -6 1657.06 370.024 6
-12 16 6 1341.74 337.422 4
-12 16 -6 1056.4 321.602 10
-12 -16 6 1451.79 398.717 5
16 -12 -7 999.682 244.178 6
-16 12 7 593.121 188.796 4
12 -16 -7 399.129 172.215 6
-12 -16 7 769.656 306.613 5
-12 16 8 845.068 229.312 4
16 -13 0 -59.6875 199.563 6
13 -16 0 -40.7487 218.104 6
-16 13 0 55.0092 184.866 10
-13 16 0 304.925 234.656 10
16 -13 1 486.753 255.575 6
16 -13 -1 89.5253 224.553 6
13 -16 1 133.627 210.365 6
13 -16 -1 44.6578 224.458 6
-16 13 1 188.6 257.998 10
-16 13 -1 32.598 184.061 10
-13 16 1 303.612 247.339 10
-13 16 -1 -49.4009 235.469 10
16 -13 -2 256.554 228.863 6
13 -16 -2 100.484 220.129 6
-16 13 2 -18.9271 192.384 10
-16 13 -2 214.426 210.882 10
-13 16 2 346.353 230.178 10
-13 16 -2 -85.5128 197.833 10
16 -13 -3 365.402 254.611 6
13 -16 -3 283.634 255.202 6
-16 13 3 487.414 254.438 10
-16 13 -3 252.323 277.126 10
-13 16 3 259.527 215.134 10
-13 16 -3 334.599 300.308 10
16 -13 -4 199.33 190.781 6
13 -16 -4 403.937 306.497 6
-16 13 4 200.236 198.549 4
-16 13 -4 282.617 237.433 10
-13 16 4 132.814 172.906 10
-13 16 -4 637.981 324.852 10
16 -13 -5 -275.568 222.145 6
13 -16 -5 -154.52 202.192 6
-16 13 5 74.2216 134.987 4
-13 16 5 8.55256 157.986 4
-16 13 -5 -178.408 196.786 10
-13 16 -5 -166.959 211.925 10
16 -13 -6 131.646 174.301 6
-16 13 6 -188.271 136.207 4
13 -16 -6 -225.631 183.994 6
-13 16 6 254.292 193.247 4
-13 16 -6 -293.673 172.739 10
-13 -16 6 -214.194 213.698 5
16 -13 -7 319.922 158.499 6
13 -16 -7 -3.33303 137.203 6
-13 16 7 -3.03092 132.271 4
-13 -16 7 -28.4414 165.247 5
16 -14 0 -107.673 176.899 6
14 -16 0 129.197 174.618 6
-16 14 0 359.364 167.427 10
-14 16 0 221.891 182.075 10
16 -14 1 1834.56 405.942 6
16 -14 -1 1455.39 400.467 6
14 -16 1 1676.11 372.982 6
14 -16 -1 1693.84 430.767 6
-16 14 1 2007.68 432.195 10
-16 14 -1 2307.02 465.251 10
-14 16 1 1753.32 398.179 10
-14 16 -1 2512.52 520.245 10
16 -14 -2 1353.71 376.064 6
14 -16 -2 843.446 329.057 6
-16 14 2 763.802 266.734 10
-16 14 -2 1214.02 361.067 10
-14 16 2 1120 330.515 10
-14 16 -2 1122.49 376.29 10
16 -14 -3 232.991 167.837 6
14 -16 -3 360.132 262.392 6
-16 14 3 233.938 188.447 10
-14 16 3 -123.643 174.993 10
-16 14 -3 28.218 164.027 10
-14 16 -3 -105.946 196.189 10
16 -14 -4 159.28 178.529 6
14 -16 -4 -119.347 166.365 6
-16 14 4 -102.238 144.848 4
-14 16 4 -155.689 167.14 4
-16 14 -4 -24.907 149.121 10
-14 16 -4 19.4504 172.352 10
16 -14 -5 626.63 251.593 6
14 -16 -5 337.372 196.114 6
-16 14 5 -16.0732 133.744 4
-14 16 5 794.746 242.449 4
-16 14 -5 379.481 200.745 10
-14 16 -5 329.702 194.833 10
16 -14 -6 829.465 228.662 6
14 -16 -6 793.973 237.019 6
-14 16 6 235.738 159.884 4
-14 -16 6 787.561 250.754 5
16 -15 0 -44.2817 167.382 6
15 -16 0 -101.172 170.363 6
-16 15 0 -34.5849 165.384 10
-15 16 0 -192.659 174.348 10
16 -15 1 28.0608 139.947 6
15 -16 1 153.069 148.138 6
16 -15 -1 -89.8458 180.463 6
15 -16 -1 -149.839 184.264 6
-16 15 1 314.65 191.958 10
-16 15 -1 -365.198 212.332 10
-15 16 1 2.15775 150.227 10
-15 16 -1 206.32 177.756 10
16 -15 -2 -58.1805 172.845 6
15 -16 -2 484.302 261.996 6
-16 15 2 120.958 149.209 10
-15 16 2 65.4302 148.619 10
-16 15 -2 26.716 150.61 10
-15 16 -2 -17.5398 186.555 10
16 -15 -3 139.799 202.416 6
15 -16 -3 -83.1065 167.174 6
-15 16 3 -313.236 194.598 4
-15 16 3 37.2356 133.803 10
-16 15 -3 93.4598 146.934 10
-15 16 -3 -21.6063 148.199 10
16 -15 -4 156.466 180.825 6
15 -16 -4 -39.4843 157.865 6
-15 16 4 44.9618 131.905 4
-16 15 -4 201.265 169.358 10
-15 16 -4 -41.4924 149.172 10
16 -15 -5 29.3799 120.453 6
15 -16 -5 -66.2145 151.581 6
-15 16 -5 33.0061 119.423 10
16 -16 0 981.579 256.1 6
-16 16 0 834.877 280.581 10
16 -16 -1 169.688 165.458 6
-16 16 1 128.527 159.921 10
-16 16 -1 46.421 132.824 10
16 -16 -2 209.119 177.508 6
-16 16 2 211.599 112.426 10
-16 16 -2 17.1735 136.962 10
16 -16 -3 54.816 130.737 6
-16 16 -3 222.689 141.942 10
16 -16 -4 254.939 164.826 6
17 0 0 -212.698 279.929 6
17 0 1 5119.37 757.569 6
17 0 -1 5148.85 731.271 6
17 0 2 4429.96 675.362 6
17 0 -2 4247.76 685.806 6
17 0 3 2323.57 501.388 6
17 0 -3 1987.39 474.402 6
17 0 -4 194.747 219.697 6
0 -17 4 -94.5486 238.596 5
17 0 -5 356.813 237.718 6
0 -17 5 143.03 308.39 5
17 0 -6 -117.742 198.63 6
0 -17 6 -136.484 310.818 5
17 0 -7 -76.4735 181.632 6
0 -17 7 -293.729 376.253 5
17 0 -8 193.852 195.728 6
0 -17 -8 401.119 257.349 6
0 -17 8 16.9961 229.174 5
0 -17 9 -150.996 196.489 5
0 -17 10 -250.317 227.891 5
0 -17 11 -3.33388 161.982 5
17 1 0 3387.77 607.064 6
17 -1 0 2970.04 575.149 6
17 1 1 230.12 279.585 6
17 1 -1 132.991 260.767 6
17 -1 1 50.4085 210.806 6
17 -1 -1 96.7755 227.76 6
17 1 2 0.77549 190.423 6
17 -1 2 270.409 243.467 6
17 1 -2 123.134 298.267 6
17 -1 -2 30.8592 256.225 6
17 1 3 -49.7654 180.978 6
17 -1 3 -39.58 200.883 6
17 1 -3 76.3886 227.533 6
17 -1 -3 -239.717 200.408 6
17 1 4 235.087 269.656 6
17 1 -4 -161.915 308.924 6
17 -1 -4 -53.7099 249.338 6
1 -17 4 161.792 251.372 5
17 1 -5 139.973 226.856 6
17 -1 -5 83.9739 206.885 6
1 -17 5 -140.164 259.425 5
-1 -17 5 279.272 392.935 5
17 1 -6 875.395 307.31 6
17 -1 -6 1214.37 549.53 6
1 -17 6 507.274 345.052 5
-1 -17 6 823.17 400.75 5
17 1 -7 -107.375 240.193 6
17 -1 -7 117.002 181.558 6
1 -17 -7 5.87778 184.597 6
1 -17 7 31.3889 274.179 5
-1 -17 7 172.502 260.564 5
17 -1 -8 627.686 263.062 6
1 -17 -8 434.44 259.87 6
-1 -17 -8 299.796 239.841 6
1 -17 8 286.839 289.044 5
-1 -17 8 172.296 309.615 5
1 -17 9 246.254 246.164 5
-1 -17 9 282.76 288.625 5
1 -17 10 -71.7665 237.815 5
-1 -17 10 -25.7383 180.507 5
1 -17 11 101.636 174.033 5
-1 -17 11 -232.397 202.482 5
17 2 0 29.7049 224.61 6
17 -2 0 -22.3554 213.536 6
17 2 1 985.924 372.029 6
17 2 -1 2252.78 525.251 6
17 -2 1 1051.68 352.613 6
17 -2 -1 1585.36 440.532 6
17 2 -2 3930.41 690.333 6
17 -2 2 3922.04 664.84 6
17 2 2 3528.64 639.199 6
17 -2 -2 3361.19 609.784 6
17 2 3 2687.33 546.565 6
17 2 -3 3124.19 601.552 6
17 -2 3 3448.75 595.163 6
17 -2 -3 3031.35 594.449 6
17 2 4 1684.84 427.901 6
17 2 -4 1946.7 452.25 6
17 -2 -4 1300.63 392.969 6
2 -17 4 2091.86 522.966 5
17 2 -5 174.613 254.649 6
17 -2 -5 544.46 306.57 6
2 -17 5 528.988 295.788 5
-2 -17 5 -28.6872 272.807 5
17 2 -6 -46.0203 191.334 6
17 -2 -6 54.1875 242.629 6
2 -17 -6 -55.069 215.326 6
2 -17 6 62.8026 240.532 5
-2 -17 6 249.886 238.461 5
17 2 -7 -12.4364 168.841 6
17 -2 -7 217.253 231.957 6
-2 17 7 -11.9315 188.008 4
2 -17 -7 -60.1962 184.562 6
-2 -17 7 -151.704 244.418 5
17 -2 -8 320.67 205.48 6
-2 17 8 -194.097 189.688 4
2 -17 -8 258.516 212.579 6
-2 -17 -8 586.498 267.906 6
2 -17 8 -395.079 366.229 5
-2 -17 8 111.282 239.433 5
2 -17 9 85.1979 211.981 5
-2 -17 9 -16.4231 254.32 5
2 -17 10 75.7518 177.197 5
-2 -17 10 -200.574 221.12 5
2 -17 11 0.44761 134.958 5
-2 -17 11 1.37274 162.248 5
17 3 0 260.357 233.245 6
17 -3 0 667.115 311.02 6
17 3 1 1248.84 439.558 6
17 3 -1 948.597 318.24 6
17 -3 1 1155.76 420.151 6
17 -3 -1 1073.09 404.368 6
17 3 2 -32.7457 247.322 6
17 3 -2 571.484 279.23 6
17 -3 2 -104.478 227.833 6
17 -3 -2 -18.2374 193.719 6
17 3 3 186.872 192.693 6
17 3 -3 366.973 264.844 6
17 -3 3 636.57 299.707 6
17 -3 -3 -76.7968 227.805 6
17 3 4 229.956 225.452 6
17 3 -4 416.903 280.718 6
17 -3 -4 -26.249 203.538 6
17 3 -5 -21.3563 209.741 6
17 -3 -5 -379.411 297.771 6
3 -17 -5 162.489 298.767 6
3 -17 5 72.5674 237.107 5
17 3 -6 155.039 279.127 6
17 -3 -6 -222.289 264.107 6
3 -17 -6 217.502 223.485 6
3 -17 6 -252.676 278.517 5
-3 -17 6 50.7496 251.96 5
17 3 -7 1035.48 339.701 6
17 -3 -7 1540.26 375.205 6
-3 17 7 1255.68 394.981 4
3 -17 -7 1685.09 431.712 6
3 -17 7 1088.38 380.686 5
-3 -17 7 1020.04 430.632 5
17 -3 -8 1177.04 311.534 6
-3 17 8 583.941 291.619 4
3 -17 -8 914.905 346.86 6
3 -17 8 245.777 239.774 5
-3 -17 8 1305.35 438.105 5
-3 17 9 138.01 147.052 4
3 -17 9 115.463 433.948 5
-3 -17 9 304.848 274.984 5
3 -17 10 595.645 267.61 5
-3 -17 10 -182.752 226.593 5
3 -17 11 -181.954 189.227 5
-3 -17 11 -185.02 164.929 5
17 4 0 11.2318 219.663 6
17 -4 0 -90.0822 266.93 6
17 4 -1 -39.2805 223.636 6
17 -4 1 298.122 306.4 6
17 -4 -1 -346.263 239.718 6
17 4 2 950.172 341.937 6
17 4 -2 1099.88 405.569 6
17 -4 2 1188.73 400.618 6
17 -4 -2 645.649 306.955 6
4 -17 2 1211.59 397.417 6
17 4 3 2265.77 521.191 6
17 4 -3 1545.83 437.789 6
17 -4 3 2055.6 467.095 6
17 -4 -3 1621.49 447.701 6
17 4 4 489.454 252.8 6
17 4 -4 1396.74 421.319 6
17 -4 -4 1164.18 413.811 6
4 -17 -4 792.947 333.752 6
17 4 -5 145.738 212.992 6
17 -4 -5 388.667 280.194 6
4 -17 -5 369.062 273.074 6
17 4 -6 387.925 268.673 6
17 -4 -6 139.96 199.447 6
4 -17 -6 82.3135 205.033 6
4 -17 6 -333.711 302.91 5
-4 -17 6 -386.81 359.271 5
17 4 -7 354.452 275.616 6
17 -4 -7 -119.303 172.58 6
4 -17 -7 58.7051 201.097 6
-4 17 7 21.9426 275.875 4
4 -17 7 251.685 297.727 5
-4 -17 7 3.51898 264.684 5
17 -4 -8 -237.546 197.057 6
-4 17 8 -3.65323 222.156 4
4 -17 -8 -380.329 290.906 6
4 -17 8 -30.8277 234.093 5
-4 -17 8 385.729 277.685 5
-4 17 9 -41.6463 173.463 4
4 -17 9 -172.585 240.044 5
-4 -17 9 -31.0546 198.947 5
-4 17 10 -157.269 146.352 4
4 -17 10 -25.1378 181.428 5
-4 -17 10 -12.9587 210.356 5
-4 -17 11 69.1986 128.177 5
17 5 0 5909.94 793.757 6
17 -5 0 6948.81 851.406 6
5 -17 0 6752.26 936.212 6
17 5 1 2530.25 544.276 6
17 5 -1 2161.31 513.434 6
17 -5 1 2265.88 497.076 6
17 -5 -1 2723.7 559.728 6
5 -17 1 2759.77 552.346 6
5 -17 -1 3397.94 657.422 6
-17 5 -1 2564.82 617.42 10
17 5 2 407.348 256.872 6
17 5 -2 223.25 259.65 6
17 -5 2 672.888 311.813 6
17 -5 -2 664.216 338.416 6
5 -17 2 676.322 363.078 6
5 -17 -2 157.908 253.162 6
17 5 3 159.879 219.079 6
17 5 -3 237.758 236.789 6
17 -5 3 -155.251 217.608 6
17 -5 -3 104.171 199.17 6
5 -17 -3 -123.47 234.194 6
17 5 4 -81.8749 172.727 6
17 5 -4 454.301 302.312 6
17 -5 -4 315.859 271.637 6
5 -17 -4 -162.29 213.639 6
17 5 -5 545.937 290.442 6
17 -5 -5 -341.337 262.565 6
5 -17 -5 -172.167 254.118 6
17 5 -6 491.585 276.886 6
17 -5 -6 136.392 189.504 6
5 -17 -6 430.675 320.883 6
-5 -17 6 -27.0084 218.454 5
17 5 -7 -159.785 217.598 6
17 -5 -7 105.57 208.265 6
5 -17 -7 61.9614 190.941 6
-5 17 7 -79.7574 194.802 4
5 -17 7 -312.434 278.683 5
-5 -17 7 5.06848 237.729 5
17 -5 -8 221.307 258.827 6
-5 17 8 2.41924 192.871 4
5 -17 -8 -115.262 163.632 6
5 -17 8 -349.291 281.806 5
-5 -17 8 -19.7879 229.206 5
-5 17 9 85.2953 177.022 4
5 -17 9 41.0067 211.624 5
-5 -17 9 401.874 270.336 5
-5 17 10 123.96 138.111 4
5 -17 10 17.0502 167.552 5
-5 -17 10 36.5723 156.221 5
17 6 0 287.846 286.33 6
17 -6 0 176.226 233.043 6
6 -17 0 298.737 261.237 6
-17 6 0 361.66 243.671 10
17 6 1 236.74 209.311 6
17 6 -1 101.278 226.527 6
17 -6 1 109.59 204.99 6
17 -6 -1 185.202 212.644 6
6 -17 1 366.122 249.128 6
6 -17 -1 -150.659 246.231 6
-17 6 1 814.509 367.294 10
-17 6 -1 317.63 222.324 10
17 6 2 -347.76 288.485 6
17 6 -2 87.7615 243.773 6
17 -6 2 520.069 230.301 6
17 -6 -2 -214.787 242.14 6
6 -17 2 194.487 230.868 6
6 -17 -2 -46.7959 241.036 6
-17 6 -2 41.4937 213.744 10
17 6 3 218.892 198.516 6
17 6 -3 455.23 298.648 6
17 -6 3 473.272 248.62 6
17 -6 -3 337.226 284.783 6
6 -17 -3 129.189 230.342 6
-17 6 -3 77.2372 240.442 10
17 6 4 154.958 197.891 6
17 6 -4 319.577 278.936 6
17 -6 -4 225.965 252.661 6
6 -17 -4 99.292 247.811 6
17 6 -5 -392.693 271.554 6
17 -6 -5 -258.309 266.301 6
6 -17 -5 53.2343 260.394 6
17 6 -6 -173.871 253.09 6
17 -6 -6 -172.653 226.582 6
6 -17 -6 -3.66383 199.806 6
-6 -17 6 -304.334 268.953 5
17 -6 -7 -61.8421 204.814 6
6 -17 -7 -21.0272 175.183 6
-6 17 7 124.003 198.808 4
-6 -17 7 -289.339 290.362 5
17 -6 -8 -22.6667 150.722 6
6 -17 -8 77.1191 160.542 6
-6 17 8 327.959 234.497 4
6 -17 8 234.149 187.757 5
-6 -17 8 103.144 231.274 5
-6 17 9 167.94 165.698 4
-6 -17 9 25.4637 197.753 5
-6 17 10 -296.433 186.105 4
-6 -17 10 -8.75279 160.361 5
17 7 0 -149.073 205.501 6
17 -7 0 52.9594 280.387 6
7 -17 0 -229.504 286.957 6
-17 7 0 -245.485 284.775 10
17 7 1 904.991 323.371 6
17 7 -1 871.425 357.565 6
17 -7 1 1183.2 380.832 6
17 -7 -1 1180.33 396.159 6
7 -17 1 1149.63 334.234 6
7 -17 -1 982.955 353.029 6
-17 7 1 486.818 324.355 10
-17 7 -1 1352.71 441.849 10
17 7 2 1131.05 387.226 6
17 7 -2 1464.72 422.445 6
17 -7 2 1097.62 378.259 6
17 -7 -2 1117.62 339.358 6
7 -17 2 910.07 350.123 6
7 -17 -2 1359.1 453.558 6
-17 7 -2 1204.42 410.04 10
17 7 3 1101.34 377.621 6
17 7 -3 774.156 335.572 6
17 -7 -3 987.923 350.988 6
7 -17 -3 1314.5 448.652 6
-17 7 -3 1159.43 386.759 10
17 7 4 110.535 227.882 6
17 7 -4 268.978 267.469 6
17 -7 -4 158.46 233.57 6
7 -17 -4 -55.9623 217.865 6
-17 7 -4 440.252 291.28 10
17 7 -5 -73.0132 224.596 6
17 -7 -5 -56.5995 199.578 6
7 -17 -5 -63.9524 232.667 6
17 7 -6 124.408 180.664 6
17 -7 -6 269.43 239.11 6
7 -17 -6 -319.011 256.824 6
17 -7 -7 -162.841 191.101 6
7 -17 -7 -205.49 221.456 6
-7 17 7 -85.9101 204.719 4
-7 -17 7 -192.395 243.395 5
17 -7 -8 270.863 197.004 6
7 -17 -8 275.896 172.297 6
-7 17 8 168.655 223.174 4
-7 -17 8 36.2111 200.315 5
-7 17 9 601.09 216.114 4
-7 -17 9 234.818 238.804 5
-7 17 10 124.905 114.372 4
-7 -17 10 206.116 208.413 5
17 8 0 169.284 227.486 6
17 -8 0 7.4889 210.45 6
8 -17 0 99.5021 254.35 6
-17 8 0 385.352 294.476 10
17 8 1 1490.57 420.117 6
17 8 -1 1990.82 484.471 6
17 -8 1 2265.05 498.351 6
17 -8 -1 2255.38 512.775 6
8 -17 1 2205.89 502.505 6
8 -17 -1 2743.92 587.856 6
-17 8 1 1694.16 457.418 10
-17 8 -1 1842.37 505.98 10
17 8 2 641.64 304.321 6
17 8 -2 1156.28 399.539 6
17 -8 2 1452.49 395.536 6
17 -8 -2 941.642 362.517 6
8 -17 2 809.511 281.519 6
8 -17 -2 785.347 370.512 6
-17 8 2 1496 432.37 10
-17 8 -2 1024.52 381.208 10
17 8 3 1223.62 345.894 6
17 8 -3 1127.51 397.121 6
17 -8 -3 1042.7 353.78 6
8 -17 -3 1762.86 477.078 6
-17 8 -3 1312.86 432.461 10
17 8 4 350.964 229.583 6
17 8 -4 142.987 232.746 6
17 -8 -4 638.756 285.13 6
8 -17 -4 450.675 310.538 6
-17 8 -4 635.569 318.596 10
17 8 5 25.8043 155.63 6
17 8 -5 198.177 269.739 6
17 -8 -5 57.7055 250.173 6
8 -17 -5 152.325 213.48 6
17 8 -6 4.08602 177.979 6
17 -8 -6 140.308 220.314 6
8 -17 -6 112.629 210.288 6
17 -8 -7 -144.068 205.392 6
8 -17 -7 73.2128 195.978 6
-8 17 7 146.84 173.413 4
-8 -17 7 144.251 239.844 5
17 -8 -8 -101.851 152.986 6
8 -17 -8 297.793 179.006 6
-8 17 8 41.5421 191.906 4
-8 -17 8 -409.044 272.66 5
-8 17 9 213.757 147.47 4
-8 -17 9 125.068 181.691 5
17 9 0 4088.04 625.136 6
17 -9 0 3986.01 645.949 6
9 -17 0 4352.87 696.591 6
-17 9 0 3640.33 643.033 10
17 9 1 1368.59 354.849 6
17 9 -1 1492.02 418.7 6
17 -9 1 1820.03 442.493 6
17 -9 -1 1397.8 421.231 6
9 -17 1 1802.83 454.271 6
9 -17 -1 1853.98 486.964 6
-17 9 1 1147.2 366.265 10
-17 9 -1 1120.81 378.571 10
17 9 2 163.27 178.292 6
17 9 -2 294.562 231.261 6
17 -9 2 71.0904 211.13 6
17 -9 -2 -61.2468 195.318 6
9 -17 2 -176.983 237.779 6
9 -17 -2 182.134 228.749 6
-17 9 2 59.9207 230.706 10
-17 9 -2 -75.1514 211.259 10
17 9 3 211.176 243.756 6
17 9 -3 351.087 271.96 6
17 -9 -3 267.901 213.282 6
9 -17 -3 -1.59803 226.75 6
-17 9 -3 548.538 348.518 10
17 9 4 -30.9432 208.684 6
17 9 -4 474.787 214.525 6
17 -9 -4 4.83969 195.224 6
9 -17 -4 322.433 283.869 6
-17 9 -4 555.35 254.201 10
17 9 -5 703.532 327.309 6
17 -9 -5 958.886 310.055 6
9 -17 -5 1556.61 419.838 6
17 9 -6 347.027 227.233 6
17 -9 -6 812.418 271.422 6
9 -17 -6 404.957 271.982 6
-9 17 6 980.043 346.388 4
17 -9 -7 -27.3809 182.839 6
9 -17 -7 183.693 211.09 6
-9 17 7 -31.7001 170.89 4
-9 17 -7 -298.136 250.452 10
-9 -17 7 24.5598 221.551 5
17 -9 -8 -165.802 142.179 6
9 -17 -8 80.3849 170.894 6
-9 17 8 -33.3658 160.177 4
-9 -17 8 -230.797 217.356 5
-9 17 9 44.2538 124.024 4
-9 -17 9 -53.3744 156.239 5
17 10 0 110.711 188.603 6
17 -10 0 173.38 202.846 6
10 -17 0 -505.396 300.506 6
-17 10 0 -18.1733 193.888 10
17 10 1 -210.716 207.074 6
17 10 -1 -282.71 272.983 6
17 -10 1 -136.672 238.247 6
17 -10 -1 264.543 262.591 6
10 -17 1 -233.532 227.071 6
10 -17 -1 -200.145 274.033 6
-17 10 1 -59.7926 232.005 10
-17 10 -1 339.187 255.989 10
17 10 2 806.943 306.693 6
17 10 -2 737.34 306.507 6
17 -10 2 825.986 318.365 6
17 -10 -2 798.944 314.904 6
10 -17 2 238.605 183.704 6
10 -17 -2 1176.08 388.268 6
-17 10 2 1009.79 364.853 10
-17 10 -2 825.466 314.965 10
17 10 3 622.972 343.474 6
17 10 -3 734.792 308.109 6
17 -10 -3 1321.3 360.069 6
10 -17 -3 943.786 340.598 6
-17 10 -3 1087.76 489.284 10
17 10 -4 601.62 277.282 6
17 -10 -4 215.423 230.913 6
10 -17 -4 712.887 345.11 6
-17 10 -4 688.828 300.765 10
-10 17 4 910.715 334.864 10
17 10 -5 258.259 167.359 6
17 -10 -5 -170.983 203.292 6
10 -17 -5 -100.063 195.367 6
17 10 -6 406.125 199.601 6
17 -10 -6 142.527 188.762 6
10 -17 -6 87.2006 174.983 6
-10 17 6 -132.24 213.094 4
-10 17 -6 215.978 232.177 10
-10 -17 6 407.956 239.871 5
17 -10 -7 -23.4765 166.805 6
10 -17 -7 42.6026 172.387 6
-10 17 7 157.92 185.437 4
-10 -17 7 -49.7991 183.118 5
17 -10 -8 76.3669 104.796 6
10 -17 -8 -173.402 145.915 6
-10 17 8 35.5987 148.578 4
-10 -17 8 106.642 195.414 5
-10 17 9 -13.3774 110.981 4
17 11 0 93.88 201.084 6
17 -11 0 -92.9032 200.279 6
11 -17 0 -125.198 215.568 6
-17 11 0 65.2106 210.639 10
17 11 1 225.522 222.81 6
17 11 -1 164.275 200.873 6
17 -11 1 108.495 173.135 6
17 -11 -1 117.312 263.921 6
11 -17 1 27.2576 228.862 6
11 -17 -1 428.246 274.478 6
-17 11 1 263.772 242.925 10
-17 11 -1 254.522 189.124 10
17 11 2 -77.3345 178.388 6
17 11 -2 201.245 219.211 6
17 -11 2 65.619 185.413 6
17 -11 -2 -217.378 206.89 6
11 -17 2 -213.601 200.016 6
11 -17 -2 322.552 314.714 6
-17 11 2 310.226 221.45 10
-17 11 -2 224.612 220.273 10
-11 17 2 -45.9572 231.604 10
17 11 -3 -328.334 243.5 6
17 -11 -3 512.077 242.985 6
11 -17 -3 90.7182 196.708 6
-17 11 -3 343.443 253.755 10
-11 17 3 185.219 185.208 10
17 11 -4 -120.587 175.686 6
17 -11 -4 335.943 211.922 6
11 -17 -4 -245.89 259.348 6
-17 11 -4 266.356 203.753 10
17 11 -5 254.601 234.489 6
17 -11 -5 499.522 270.523 6
11 -17 -5 571.117 292.135 6
-11 17 -5 27.3695 195.133 10
17 -11 -6 -134.698 160.905 6
11 -17 -6 460.802 216.187 6
-11 17 6 -192.098 180.772 4
-11 17 -6 150.434 191.857 10
-11 -17 6 117.372 182.824 5
17 -11 -7 -129.744 161.973 6
11 -17 -7 68.274 158.064 6
-11 17 7 191.351 186.237 4
-11 -17 7 236.995 174.032 5
-11 17 8 -81.3541 112.89 4
17 12 0 223.063 194.658 6
17 -12 0 -156.265 179.782 6
12 -17 0 201.89 227.426 6
-17 12 0 -152.149 209.019 10
-12 17 0 -88.4156 212.267 10
17 12 1 400.363 225.44 6
17 12 -1 479.89 247.867 6
17 -12 1 148.851 160.266 6
17 -12 -1 289.283 257.259 6
12 -17 1 180.429 218.583 6
12 -17 -1 58.2284 222.124 6
-17 12 1 146.442 168.769 10
-17 12 -1 378.307 221.997 10
-12 17 1 -48.308 188.867 10
17 12 -2 250.893 180.756 6
17 -12 -2 410.886 247.315 6
12 -17 -2 187.401 265.496 6
-17 12 2 115.935 216.865 10
-17 12 -2 150.093 174.194 10
-12 17 2 344.969 234.943 10
-12 17 -2 43.4663 182.994 10
17 12 -3 20.9892 169.838 6
17 -12 -3 721.218 299.455 6
12 -17 -3 630.297 254.884 6
-17 12 -3 558.749 283.791 10
-12 17 3 786.098 281.392 10
-12 17 -3 -26.2672 215.328 10
17 -12 -4 483.103 263.695 6
12 -17 -4 740.843 289.415 6
-17 12 -4 410.527 262.277 10
-12 17 -4 343.794 260.701 10
17 -12 -5 231.152 204.812 6
12 -17 -5 178.89 190.626 6
-12 17 5 362.306 209.226 4
-12 17 -5 356.791 240.172 10
17 -12 -6 -103.586 152.687 6
12 -17 -6 93.2151 162.312 6
-12 17 6 -187.762 161.291 4
-12 17 -6 -54.5394 145.509 10
-12 -17 6 -22.2593 172.626 5
17 -12 -7 -442.555 172.604 6
12 -17 -7 -122.913 133.539 6
-12 17 7 -20.1296 125.191 4
-12 -17 7 -87.9336 149.683 5
17 -13 0 511.166 244.485 6
13 -17 0 711.867 303.46 6
-17 13 0 724.955 284.026 10
-13 17 0 543.612 296.265 10
17 -13 1 -101.851 186.032 6
17 -13 -1 -323.767 214.929 6
13 -17 1 264.866 207.93 6
13 -17 -1 74.3215 186.75 6
-17 13 1 106.182 168.631 10
-17 13 -1 141.162 222.725 10
-13 17 1 -66.6341 187.796 10
-13 17 -1 142.646 235.07 10
17 -13 -2 34.1448 168.522 6
13 -17 -2 132.063 200.351 6
-17 13 2 -14.5616 166.749 10
-17 13 -2 89.6079 168.057 10
-13 17 2 -221.884 217.533 10
-13 17 -2 -45.4112 182.801 10
17 -13 -3 -109.255 217.499 6
13 -17 -3 89.3574 182.923 6
-17 13 -3 74.6361 160.173 10
-13 17 3 33.6893 151.008 10
-13 17 -3 491.817 289.677 10
17 -13 -4 -68.3254 152.362 6
13 -17 -4 -22.3366 162.422 6
-13 17 4 33.8716 149.863 4
-17 13 -4 -181.684 164.607 10
-13 17 -4 -110.881 207.201 10
17 -13 -5 -60.9265 146.943 6
13 -17 -5 -67.0986 148.548 6
-13 17 5 -28.9248 127.065 4
-13 17 -5 -29.4987 173.016 10
-13 -17 5 -87.9393 198.851 5
17 -13 -6 218.253 116.129 6
-13 17 6 145.978 133.885 4
17 -14 0 -50.3477 139.715 6
14 -17 0 62.9837 146.47 6
-17 14 0 140.137 177.297 10
-14 17 0 13.4863 161.19 10
17 -14 1 230.01 153.363 6
17 -14 -1 674.716 270.463 6
14 -17 1 -200.176 162.259 6
14 -17 -1 52.1385 194.863 6
-17 14 1 284.779 197.729 10
-17 14 -1 323.648 209.189 10
-14 17 1 118.562 150.941 10
-14 17 -1 433.446 247.732 10
17 -14 -2 256.026 226.949 6
14 -17 -2 -4.06493 156.51 6
-17 14 -2 567.718 224.025 10
-14 17 2 -207.325 197.416 10
-14 17 -2 542.898 253.685 10
17 -14 -3 57.7195 144.641 6
14 -17 -3 -19.5173 156.879 6
-14 17 3 -148.223 131.53 4
-17 14 -3 110.478 155.417 10
-14 17 3 -85.2705 123.628 10
-14 17 -3 -11.23 154.159 10
17 -14 -4 72.7348 144.623 6
14 -17 -4 -214.888 175.995 6
-14 17 4 -245.863 179.658 4
-14 17 -4 -1.42453 151.167 10
17 -14 -5 -41.0599 184.709 6
14 -17 -5 281.582 158.617 6
-14 17 5 -143.016 115.672 4
-14 -17 5 291.48 179.86 5
17 -15 0 -76.9564 139.837 6
15 -17 0 63.9645 131.159 6
-17 15 0 99.5117 147.235 10
-15 17 0 6.07643 152.718 10
17 -15 -1 -156.59 179.109 6
15 -17 -1 20.4205 124.044 6
-17 15 1 -23.0449 137.763 10
-17 15 -1 -22.5816 157.307 10
-15 17 1 184.283 187.521 10
-15 17 -1 -254.461 213.825 10
17 -15 -2 6.09572 148.566 6
15 -17 -2 -23.8861 163.807 6
-17 15 -2 138.815 147.674 10
-15 17 2 -60.0401 108.111 10
-15 17 -2 201.716 168.051 10
17 -15 -3 65.4556 120.836 6
15 -17 -3 16.1311 135.347 6
-17 15 -3 289.557 154.515 10
-15 17 -3 141.914 292.585 10
17 -15 -4 -25.8948 112.381 6
15 -17 -4 27.6703 113.634 6
-16 17 0 -162.687 138.36 10
-16 17 -1 21.7396 127.96 10
18 0 0 14540.2 1214.3 6
18 0 1 2290.93 497.827 6
18 0 -1 3111.99 586.49 6
18 0 2 -26.957 200.161 6
18 0 -2 -297.638 237.372 6
18 0 3 458.212 260.439 6
18 0 -3 163.815 212.696 6
0 -18 3 -85.2067 245.439 5
18 0 -4 929.999 345.165 6
0 -18 4 170.277 319.397 5
18 0 -5 722.491 333.343 6
0 -18 5 682.665 421.839 5
18 0 -6 2913.22 520.382 6
0 -18 6 2203.78 543.082 5
18 0 -7 1602.43 373.5 6
0 -18 -7 1051.89 357.678 6
0 -18 7 1125.17 424.298 5
0 -18 -8 954.085 307.177 6
0 -18 8 447.646 281.888 5
0 -18 9 -99.8019 177.995 5
0 -18 10 158.813 171.786 5
18 1 0 402.528 297.038 6
18 -1 0 274.071 267.92 6
18 1 1 603.203 307.249 6
18 1 -1 -67.6173 225.257 6
18 -1 1 135.704 251.769 6
18 -1 -1 153.885 262.008 6
18 1 2 237.944 259.965 6
18 -1 2 249.604 196.449 6
18 1 -2 -273.592 268.156 6
18 -1 -2 -14.4977 219.298 6
18 1 3 -124.916 171.007 6
18 -1 3 68.9052 189.769 6
18 1 -3 31.7915 205.408 6
18 -1 -3 -237.532 243.697 6
1 -18 3 -193.58 245.676 5
18 1 -4 -289.916 302.962 6
18 -1 -4 -324.713 272.168 6
1 -18 4 319.014 346.218 5
-1 -18 4 84.2554 276.978 5
18 1 -5 65.9292 210.927 6
18 -1 -5 367.489 253.229 6
1 -18 5 -325.635 295.795 5
-1 -18 5 124.971 252.079 5
18 1 -6 49.1385 200.053 6
18 -1 -6 -320.698 245.585 6
1 -18 -6 154.192 242.737 6
1 -18 6 -7.53113 292.723 5
-1 -18 6 158.348 314.326 5
18 1 -7 -256.803 200.434 6
18 -1 -7 -132.836 165.57 6
1 -18 -7 20.5174 209.076 6
-1 -18 -7 173.285 203.903 6
1 -18 7 -178.534 243.942 5
-1 -18 7 212.636 261.207 5
18 -1 -8 -89.3048 144.205 6
1 -18 -8 419.509 204.127 6
-1 -18 -8 103.132 171.63 6
1 -18 8 -135.05 256.37 5
-1 -18 8 -93.8372 205.031 5
1 -18 9 -114.275 197.916 5
-1 -18 9 394.981 231.691 5
1 -18 10 -108.864 153.38 5
-1 -18 10 -98.8427 181.232 5
18 2 0 899.332 353.455 6
18 -2 0 716.385 331.05 6
18 2 1 1816.87 489.151 6
18 2 -1 1768.56 454.239 6
18 -2 1 1784.42 457.765 6
18 -2 -1 1674.63 432.667 6
18 2 2 652.65 302.408 6
18 2 -2 324.22 269.977 6
18 -2 2 566.631 291.971 6
18 -2 -2 844.685 354.004 6
18 2 3 245.124 278.644 6
18 2 -3 -244.493 227.807 6
18 -2 3 115.1 181.667 6
18 -2 -3 478.854 290.126 6
18 2 4 289.303 249.068 6
18 2 -4 233.634 255.876 6
18 -2 -4 699.045 305.708 6
2 -18 4 307.24 253.091 5
-2 -18 4 282.695 255.283 5
18 2 -5 1339.22 375.391 6
18 -2 -5 1369.36 404.411 6
2 -18 5 1026.98 430.013 5
-2 -18 5 1072.73 431.89 5
18 2 -6 1984.81 411.966 6
18 -2 -6 1782.11 454.263 6
-2 18 6 1144.52 354.88 4
2 -18 -6 2373.75 505.614 6
2 -18 6 935.609 413.708 5
-2 -18 6 1322.37 487.316 5
18 2 -7 1832.65 412.074 6
18 -2 -7 1682.87 365.696 6
-2 18 7 1539.54 357.607 4
2 -18 -7 1754.06 385.317 6
2 -18 7 909.047 410.079 5
-2 -18 7 1903.89 509.81 5
18 -2 -8 303.423 179.177 6
2 -18 -8 454.802 227.671 6
-2 -18 -8 172.733 188.327 6
2 -18 8 508.529 320.439 5
-2 -18 8 987.364 399.494 5
2 -18 9 -499.69 276.328 5
-2 -18 9 -130.767 203.533 5
2 -18 10 4.9209 142.37 5
-2 -18 10 -65.0325 161.856 5
18 3 0 -91.9084 190.75 6
18 -3 0 171.801 280.879 6
18 3 1 212.746 206.728 6
18 3 -1 815.159 315.016 6
18 -3 1 303.56 241.453 6
18 -3 -1 885.382 361.041 6
18 3 2 242.454 218.883 6
18 3 -2 720.831 320.757 6
18 -3 2 528.944 308.55 6
18 -3 -2 776.332 358.705 6
18 3 3 100.472 225.624 6
18 3 -3 369.302 239.423 6
18 -3 3 579.204 269.122 6
18 -3 -3 -113.395 243.105 6
3 -18 3 94.2955 205.978 6
18 3 4 463.6 232.417 6
18 3 -4 260.457 237.475 6
18 -3 -4 253.295 236.516 6
3 -18 -4 -42.3116 220.759 6
18 3 -5 164.18 213.192 6
18 -3 -5 87.56 204.822 6
3 -18 -5 154.355 213.784 6
3 -18 5 -252.009 303.53 5
-3 -18 5 273.461 289.304 5
18 3 -6 -81.653 175.702 6
3 -18 -6 108.194 252.287 6
3 -18 6 -26.6018 287.055 5
-3 -18 6 -95.2748 262.031 5
18 3 -7 405.572 248.735 6
18 -3 -7 -139.043 184.265 6
-3 18 7 41.2553 180.794 4
3 -18 -7 319.46 232.352 6
3 -18 7 -114.341 275.403 5
-3 -18 7 18.5185 247.33 5
18 -3 -8 833.184 283.514 6
-3 18 8 -31.7905 154.546 4
3 -18 -8 134.271 198.448 6
3 -18 8 7.00396 183.271 5
-3 -18 8 723.372 333.749 5
3 -18 9 329.156 207.601 5
-3 -18 9 524.108 259.554 5
3 -18 10 450.518 200.33 5
-3 -18 10 187.373 193.144 5
18 4 0 856.585 361.178 6
18 -4 0 546.467 309.013 6
4 -18 0 592.987 327.122 6
18 4 1 465.217 270.819 6
18 4 -1 464.851 277.393 6
18 -4 1 249.311 224.287 6
18 -4 -1 429.968 282.072 6
4 -18 1 -71.6642 233.453 6
18 4 2 -76.5443 185.266 6
18 4 -2 88.6966 207.639 6
18 -4 2 -28.5319 218.251 6
18 -4 -2 207.344 246.505 6
4 -18 2 525.351 320.24 6
4 -18 -2 432.4 275.231 6
18 4 3 248.004 220.078 6
18 4 -3 -84.762 233.376 6
18 -4 3 107.926 215.606 6
18 -4 -3 -89.4257 219.28 6
4 -18 -3 -257.087 244.876 6
18 4 4 545.415 272.862 6
18 4 -4 1123.97 401.711 6
18 -4 -4 1199.25 379.881 6
4 -18 -4 1780.83 450.796 6
18 4 -5 1883.73 448.413 6
18 -4 -5 2401.24 484.939 6
4 -18 -5 1773.94 449.482 6
-4 -18 5 1827.63 566.564 5
18 4 -6 1489.43 367.028 6
18 -4 -6 1853.28 408.195 6
4 -18 -6 1884.85 454.18 6
-4 -18 6 1663.04 495.633 5
18 4 -7 245.531 164.051 6
18 -4 -7 427.433 204.911 6
-4 18 7 273.867 211.232 4
4 -18 -7 75.2323 187.725 6
4 -18 7 -106.179 188.457 5
-4 -18 7 567.824 312.761 5
18 -4 -8 594.671 235.342 6
-4 18 8 485.397 254.726 4
4 -18 -8 190.217 197.794 6
4 -18 8 77.8639 204.927 5
-4 -18 8 -252.841 282.154 5
-4 18 9 115.154 145.494 4
4 -18 9 -98.1917 179.958 5
-4 -18 9 6.26748 165.604 5
-4 -18 10 -42.3865 157.165 5
18 5 0 81.4236 235.052 6
18 -5 0 307.193 276.911 6
5 -18 0 -410.66 293.376 6
18 5 1 200.171 219.927 6
18 5 -1 578.99 308.076 6
18 -5 1 229.905 242.002 6
18 -5 -1 266.484 235.386 6
5 -18 1 59.6392 209.258 6
5 -18 -1 334.001 217.382 6
18 5 2 1608 389.018 6
18 5 -2 2286.24 499.785 6
18 -5 2 1204.22 339.588 6
18 -5 -2 1799.86 434.252 6
5 -18 2 2034.73 464.213 6
5 -18 -2 2882.51 598.132 6
18 5 3 1877.61 394.399 6
18 5 -3 1478.2 423.134 6
18 -5 3 1588.2 395.57 6
18 -5 -3 1880.88 447.217 6
5 -18 -3 1446.4 425.338 6
18 5 4 1042.44 335.159 6
18 5 -4 1443.37 424.433 6
18 -5 -4 1095.45 349.874 6
5 -18 -4 1487.7 437.686 6
18 5 -5 656.174 301.388 6
18 -5 -5 664.749 282.904 6
5 -18 -5 1229.59 395.821 6
18 5 -6 -110.745 223.776 6
18 -5 -6 197.67 209.968 6
5 -18 -6 9.51039 191.098 6
-5 -18 6 99.3166 216.106 5
18 5 -7 204.838 174.106 6
18 -5 -7 55.1404 156.73 6
5 -18 -7 -49.7351 222.307 6
-5 18 7 -252.902 237.809 4
-5 -18 7 -122.81 226.307 5
18 -5 -8 575.719 163.402 6
-5 18 8 216.002 168.037 4
5 -18 -8 348.028 188.716 6
-5 -18 8 176.723 219.669 5
-5 18 9 786.6 231.465 4
-5 -18 9 406.417 220.062 5
-5 -18 10 -42.6431 130.92 5
18 6 0 267.571 262.529 6
18 -6 0 -248.293 325.365 6
6 -18 0 -382.309 326.989 6
18 6 1 -4.35432 199.813 6
18 6 -1 -101.868 256.367 6
18 -6 1 82.1139 199.485 6
18 -6 -1 63.6064 207.574 6
6 -18 1 -372.157 270.291 6
6 -18 -1 -436.613 304.544 6
18 6 2 150.913 184.562 6
18 6 -2 374.828 271.782 6
18 -6 2 -62.9637 175.33 6
18 -6 -2 103.12 197.617 6
6 -18 2 -226.578 188.68 6
6 -18 -2 63.5674 240.791 6
18 6 3 199.81 205.218 6
18 6 -3 18.7241 210.824 6
18 -6 -3 -182.402 249.271 6
6 -18 -3 148.332 238.402 6
18 6 4 233.882 186.27 6
18 6 -4 716.309 333.593 6
18 -6 -4 672.127 293.666 6
6 -18 -4 114.635 262.325 6
18 6 -5 -38.9565 206.222 6
18 -6 -5 471.203 194.831 6
6 -18 -5 860.486 358.369 6
18 6 -6 544.282 269.822 6
18 -6 -6 37.5099 162.025 6
6 -18 -6 160.476 208.781 6
-6 -18 6 393.861 289.132 5
18 -6 -7 279.141 216.549 6
6 -18 -7 531.964 253.276 6
-6 18 7 -75.2651 212.146 4
-6 -18 7 257.725 255.567 5
18 -6 -8 119.153 169.706 6
-6 18 8 283.402 182.543 4
6 -18 -8 -421.733 228.112 6
-6 -18 8 117.603 181.214 5
-6 18 9 -18.3541 138.313 4
-6 -18 9 94.0438 145.585 5
18 7 0 119.939 235.082 6
18 -7 0 30.4 180.371 6
7 -18 0 -320.374 319.259 6
18 7 1 503.537 272.042 6
18 7 -1 351.341 199.207 6
18 -7 1 6.11589 186.179 6
18 -7 -1 380.127 269.253 6
7 -18 1 226.931 196.599 6
7 -18 -1 228.65 245.261 6
18 7 2 849.011 298.745 6
18 7 -2 946.451 323.757 6
18 -7 2 364.831 194.658 6
18 -7 -2 756.395 324.571 6
7 -18 2 874.593 340.403 6
7 -18 -2 1043.02 391.548 6
18 7 3 4039.18 599.493 6
18 -7 -3 4238.89 630.893 6
18 7 -3 3590.49 597.148 6
7 -18 -3 4539.58 684.938 6
18 7 4 3378.1 550.675 6
18 7 -4 4242.64 609.785 6
18 -7 -4 4156.61 617.119 6
7 -18 -4 4121.35 665.341 6
18 7 -5 428.759 258.564 6
18 -7 -5 -304.454 241 6
7 -18 -5 552.273 282.011 6
18 7 -6 -24.0109 173.777 6
18 -7 -6 -46.4109 191.768 6
7 -18 -6 -193.016 240.393 6
-7 -18 6 46.437 265.257 5
18 -7 -7 291.819 161.365 6
7 -18 -7 404.501 215.096 6
-7 18 7 65.2271 169.884 4
-7 -18 7 214.546 233.82 5
18 -7 -8 419.775 158.707 6
-7 18 8 -241.798 210.91 4
7 -18 -8 -12.612 134.402 6
-7 -18 8 -249.883 221.974 5
-7 18 9 440.136 174.371 4
-7 -18 9 516.104 240.21 5
18 8 0 -656.587 289.903 6
18 -8 0 -194.948 239.697 6
8 -18 0 -81.0066 212.309 6
18 8 1 -14.0316 209.2 6
18 8 -1 -75.5737 222.608 6
18 -8 1 12.3538 167.232 6
18 -8 -1 -228.173 255.895 6
8 -18 1 30.9271 218.977 6
8 -18 -1 -236.567 239.897 6
-18 8 -1 -75.5815 184.79 10
18 8 2 -17.4289 201.137 6
18 8 -2 398.971 292.727 6
18 -8 2 -61.6851 190.297 6
18 -8 -2 217.059 203.682 6
8 -18 2 -149.086 188.884 6
8 -18 -2 -97.5907 269.544 6
18 8 3 -122.949 182.212 6
18 8 -3 540.499 278.425 6
18 -8 -3 84.093 220.331 6
8 -18 -3 -175.655 224.936 6
18 8 4 476.654 258.536 6
18 8 -4 317.034 252.63 6
18 -8 -4 78.0436 171.008 6
8 -18 -4 330.063 289.078 6
18 8 -5 158.403 199.452 6
18 -8 -5 737.147 300.781 6
8 -18 -5 384.297 257.954 6
18 8 -6 203.405 200.323 6
18 -8 -6 -122.472 187.299 6
8 -18 -6 -254.659 250.971 6
-8 18 6 320.433 196.332 4
-8 -18 6 -120.612 181.923 5
18 -8 -7 100.753 158.81 6
8 -18 -7 -398.278 228.076 6
-8 18 7 10.1135 158.177 4
-8 -18 7 -111.852 163.229 5
18 -8 -8 370.087 159.804 6
8 -18 -8 364.282 173.415 6
-8 18 8 81.8468 150.503 4
-8 -18 8 501.163 230.459 5
18 9 0 145.31 183.115 6
18 -9 0 -104.208 211.948 6
9 -18 0 56.3209 229.979 6
-18 9 0 -511.917 281.451 10
18 9 1 85.9898 210.931 6
18 9 -1 564.712 268.919 6
18 -9 1 622.907 275.337 6
18 -9 -1 439.626 253.702 6
9 -18 1 107.055 235.608 6
9 -18 -1 499.202 279.026 6
-18 9 -1 25.1489 206.269 10
18 9 2 1666.77 422.506 6
18 9 -2 1940.81 426.609 6
18 -9 2 2237.7 423.743 6
18 -9 -2 1764.62 395.485 6
9 -18 2 2255.31 473.047 6
9 -18 -2 2330.93 508.326 6
-18 9 -2 2257.56 501.212 10
18 9 3 921.002 350.748 6
18 9 -3 1798.85 413.223 6
18 -9 -3 1796.84 422.957 6
9 -18 -3 1830.27 451.438 6
18 9 4 323.164 223.723 6
18 9 -4 1080.11 347.178 6
18 -9 -4 799.41 272.496 6
9 -18 -4 790.929 296.087 6
18 9 -5 371.134 203.931 6
18 -9 -5 648.895 281.885 6
9 -18 -5 659.782 287.845 6
18 9 -6 -327.811 199.148 6
18 -9 -6 60.5003 150.505 6
9 -18 -6 -165.306 188 6
-9 18 6 -14.2043 173.669 4
-9 -18 6 -95.3497 229.745 5
18 -9 -7 294.768 199.851 6
9 -18 -7 -3.07335 141.524 6
-9 18 7 -7.78763 181.273 4
-9 -18 7 219.866 247.284 5
-9 18 8 628.365 197.549 4
-9 -18 8 282.678 206.054 5
18 10 0 -254.568 216.682 6
18 -10 0 -223.961 249.4 6
10 -18 0 -20.0288 228.639 6
-18 10 0 87.5744 181.444 10
18 10 1 116.468 195.109 6
18 10 -1 -256.763 189.587 6
18 -10 1 196.801 214.48 6
18 -10 -1 86.3423 214.384 6
10 -18 1 116.786 206.202 6
10 -18 -1 89.9435 238.304 6
-18 10 -1 14.8762 189.861 10
18 10 2 -7.88021 193.925 6
18 10 -2 226.02 188.44 6
18 -10 2 -34.8294 149.606 6
18 -10 -2 5.69512 179.3 6
10 -18 -2 1.3979 202.657 6
-18 10 -2 385.44 244.808 10
18 10 3 339.105 277.993 6
18 10 -3 35.8071 181.304 6
18 -10 -3 597.21 294.063 6
10 -18 -3 430.633 304.287 6
-10 18 3 -37.506 169.646 10
18 10 -4 -311.044 220.815 6
18 -10 -4 82.2883 167.914 6
10 -18 -4 -97.8247 228.598 6
18 10 -5 67.0434 138.553 6
18 -10 -5 234.559 161.066 6
10 -18 -5 354.136 226.543 6
18 -10 -6 182.007 162.234 6
10 -18 -6 -18.3074 169.008 6
-10 18 6 106.536 168.666 4
-10 18 -6 554.433 237.77 10
-10 -18 6 -268.417 237.863 5
18 -10 -7 -352.364 138.333 6
10 -18 -7 -233.294 154.676 6
-10 18 7 -50.0267 123.17 4
-10 -18 7 161.982 142.465 5
18 11 0 87.4654 182.56 6
18 -11 0 -96.4606 217.556 6
11 -18 0 158.786 187.728 6
-18 11 0 -52.977 190.75 10
18 11 1 286.93 190.482 6
18 11 -1 364.255 210.608 6
18 -11 1 419.009 215.955 6
18 -11 -1 -81.7394 209.303 6
11 -18 1 193.156 179.538 6
11 -18 -1 76.0461 225.232 6
-18 11 -1 421.25 231.91 10
-11 18 1 93.7563 199.064 10
18 11 2 545.055 234.602 6
18 11 -2 526.336 245.759 6
18 -11 -2 157.127 210.847 6
11 -18 -2 340.413 268.727 6
-18 11 -2 399.818 248.789 10
-11 18 2 281.937 211.903 10
18 11 -3 644.606 259.132 6
18 -11 -3 1034.32 316.441 6
11 -18 -3 752.658 289.257 6
-11 18 3 457.404 203.204 10
18 11 -4 426.195 224.409 6
18 -11 -4 255.32 208.035 6
11 -18 -4 341.671 225.678 6
-11 18 -4 -11.9506 217.476 10
18 -11 -5 308.775 186.508 6
11 -18 -5 -38.0546 207.067 6
-11 18 5 53.237 170.126 4
-11 18 -5 220.128 213.755 10
18 -11 -6 -180.059 167.166 6
11 -18 -6 85.0457 130.683 6
-11 18 6 121.669 153.967 4
-11 18 -6 -18.0294 116.767 10
-11 -18 6 26.2344 144.096 5
-11 18 7 -58.7206 127.94 4
-11 -18 7 24.4265 124.853 5
18 -12 0 83.7143 147.824 6
12 -18 0 87.1671 196.462 6
-18 12 0 46.006 191.139 10
-12 18 0 417.072 251.277 10
18 12 -1 692.756 262.008 6
18 -12 1 613.854 242.887 6
18 -12 -1 334.782 213.582 6
12 -18 1 277.846 189.128 6
12 -18 -1 111.985 184.894 6
-18 12 -1 537.183 237.962 10
-12 18 1 126.385 175.601 10
-12 18 -1 683.271 284.528 10
18 12 -2 561.388 231.948 6
18 -12 -2 177.715 241.094 6
12 -18 -2 178.183 244.016 6
-18 12 -2 365.407 228.444 10
-12 18 2 467.341 223.465 10
-12 18 -2 211.814 183.776 10
18 -12 -3 -110.429 195.125 6
12 -18 -3 337.194 223.689 6
-12 18 3 -206.517 165.05 10
-12 18 -3 137.097 202.985 10
18 -12 -4 -218.129 194.843 6
12 -18 -4 -581.117 231.57 6
-12 18 4 50.2772 157.056 4
-12 18 -4 -115.792 187.337 10
18 -12 -5 10.4904 155.614 6
12 -18 -5 71.7847 148.874 6
-12 18 5 203.001 141.495 4
-12 18 -5 -426.873 202.063 10
-12 -18 5 -182.121 200.798 5
18 -12 -6 86.035 108.191 6
12 -18 -6 -128.671 119.622 6
-12 18 6 -9.39916 111.377 4
-12 -18 6 -109.376 141.568 5
18 -13 0 35.8394 131.491 6
13 -18 0 212.198 212.693 6
-13 18 0 49.8349 175.444 10
18 -13 1 241.011 143.261 6
18 -13 -1 37.9241 136.591 6
13 -18 -1 57.2096 148.749 6
-18 13 -1 160.958 202.315 10
-13 18 1 -310.901 179.201 10
-13 18 -1 95.8885 166.043 10
18 -13 -2 311.207 211.554 6
13 -18 -2 300.699 239.12 6
-13 18 2 191.417 172.928 10
-13 18 -2 350.103 199.893 10
18 -13 -3 201.647 188.816 6
13 -18 -3 194.643 199.265 6
-13 18 -3 416.57 226.069 10
18 -13 -4 39.704 123.664 6
13 -18 -4 112.539 156.762 6
-13 18 4 -88.186 146.045 4
-13 18 -4 -212.196 163.141 10
18 -13 -5 -21.4137 109.127 6
13 -18 -5 36.3728 113.81 6
-13 18 5 40.6577 101.894 4
-13 -18 5 -123.273 137.182 5
18 -14 0 1337.15 269.44 6
-14 18 0 1060.85 271.578 10
18 -14 -1 726.312 240.497 6
14 -18 -1 260.788 157.956 6
-14 18 1 470.661 184.984 10
-14 18 -1 378.722 176.469 10
14 -18 -2 -1.96643 125.248 6
-14 18 2 -306.642 154.537 4
-14 18 -2 -291.75 191.273 10
18 -14 -3 -9.59427 127.88 6
14 -18 -3 -121.677 157.358 6
-14 18 -3 127.687 131.006 10
18 -14 -4 -10.023 114.395 6
19 0 0 175.732 214.472 6
19 0 1 1060.88 348.791 6
19 0 -1 1827.5 440.453 6
19 0 2 6453.2 764.103 6
19 0 -2 5941.22 755.968 6
19 0 -3 4582.18 661.85 6
19 0 3 4063.63 586.053 6
19 0 -4 1987.37 460.086 6
0 -19 4 1628.99 506.282 5
19 0 -5 -148.258 190.834 6
0 -19 5 280.401 264.874 5
19 0 -6 224.586 160.892 6
0 -19 -6 269.956 248.004 6
0 -19 6 139.103 215.042 5
19 0 -7 -178.483 168.65 6
0 -19 -7 -265.987 246.688 6
0 -19 7 -445.21 294.229 5
0 -19 -8 232.198 160.313 6
0 -19 8 -384.15 224.869 5
0 -19 9 77.1179 179.762 5
19 1 0 495.536 303.389 6
19 -1 0 211.426 229.769 6
19 1 1 195.159 262.158 6
19 1 -1 613.526 307.669 6
19 -1 1 -57.8666 194.083 6
19 -1 -1 491.303 285.485 6
19 1 2 490.533 286.845 6
19 -1 2 851.265 294.071 6
19 1 -2 592.294 324.683 6
19 -1 -2 862.661 377.194 6
-1 -19 2 609.844 378.637 5
19 1 3 -190.254 196.608 6
19 -1 3 -42.8424 186.184 6
19 1 -3 173.899 245.114 6
19 -1 -3 442.582 288.134 6
-1 -19 3 618.26 336.394 5
19 1 -4 310.495 221.934 6
19 -1 -4 80.6025 216.017 6
1 -19 4 321.274 288.2 5
-1 -19 4 -194.422 215.675 5
19 1 -5 381.822 241.911 6
19 -1 -5 410.898 282.385 6
1 -19 5 537.166 308.034 5
-1 -19 5 228.625 203.81 5
19 1 -6 191.9 177.201 6
19 -1 -6 66.1801 168.749 6
1 -19 -6 458.173 214.96 6
1 -19 6 -37.9256 228.308 5
-1 -19 6 -121.013 259.511 5
19 1 -7 250.364 194.374 6
19 -1 -7 374.423 209.659 6
1 -19 -7 819.157 295.794 6
-1 -19 -7 869.659 287.861 6
1 -19 7 33.2476 207.511 5
-1 -19 7 608.801 276.665 5
1 -19 -8 -133.752 153.211 6
1 -19 8 214.409 191.575 5
-1 -19 8 -180.758 233.552 5
1 -19 9 -423.999 227.941 5
-1 -19 9 113.037 200.612 5
19 2 0 123.403 242.791 6
19 -2 0 55.3427 222.958 6
19 2 1 2277.65 447.638 6
19 2 -1 1481.61 423.659 6
19 -2 1 1152.28 369.212 6
19 -2 -1 1635.99 436.898 6
19 2 2 1700.08 407.251 6
19 2 -2 2120.15 456.344 6
19 -2 2 2274.72 455.181 6
19 -2 -2 2087.9 469.157 6
19 -2 -3 3782.89 594.69 6
19 2 3 3220.26 537.92 6
19 -2 3 3694.27 561.512 6
19 2 -3 3675.6 588.324 6
-2 -19 3 3009.44 649.079 5
19 2 -4 2463.89 478.111 6
19 -2 -4 2700.04 499.914 6
-2 -19 4 2512 581.578 5
19 2 -5 1788.89 402.59 6
19 -2 -5 1700.41 402.88 6
2 -19 -5 2175.73 487.322 6
2 -19 5 900.242 378.867 5
-2 -19 5 2021.46 534.304 5
19 2 -6 -67.4308 203.994 6
19 -2 -6 297.892 214.701 6
2 -19 -6 218.108 203.012 6
2 -19 6 -313.324 300.934 5
-2 -19 6 -21.3644 209.662 5
19 2 -7 432.941 227.882 6
19 -2 -7 8.32351 146.929 6
2 -19 -7 20.1198 170.452 6
-2 -19 -7 331.56 209.922 6
2 -19 7 201.745 246.426 5
-2 -19 7 408.33 281.236 5
2 -19 -8 -145.682 143.513 6
2 -19 8 -401.92 229.875 5
-2 -19 8 -59.5024 189.197 5
2 -19 9 276.073 187.637 5
-2 -19 9 192.156 209.422 5
19 3 0 1157.67 360.544 6
19 -3 0 1676.86 420.379 6
19 3 1 1208.14 378.386 6
19 3 -1 996.255 346.3 6
19 -3 1 902.439 339.262 6
19 -3 -1 755.934 288.101 6
3 -19 1 1032.7 407.729 6
19 3 2 368.398 249.76 6
19 3 -2 427.197 276.838 6
19 -3 2 141.455 216.438 6
19 -3 -2 711.892 292.42 6
3 -19 2 305.276 298.573 6
19 3 3 116.258 174.094 6
19 3 -3 -248.909 251.865 6
19 -3 3 -159.918 225.961 6
19 -3 -3 246.418 248.265 6
3 -19 -3 106.666 248.108 6
19 3 4 533.327 298.739 6
19 3 -4 614.151 295.609 6
19 -3 -4 476.911 289.874 6
3 -19 -4 185.69 235.521 6
-3 -19 4 545.759 357.367 5
19 3 -5 545.719 302.62 6
19 -3 -5 687.468 280.322 6
3 -19 -5 667.724 301.77 6
-3 -19 5 303.541 271.896 5
19 3 -6 870.001 305.409 6
19 -3 -6 798.492 294.864 6
-3 19 6 308.653 218.883 4
3 -19 -6 564.759 253.345 6
-3 -19 6 400.596 338.544 5
19 3 -7 176.068 138.961 6
19 -3 -7 539.98 242.844 6
-3 19 7 217.068 183.15 4
3 -19 -7 538.747 242.4 6
-3 -19 -7 417.229 213.913 6
3 -19 7 136.109 166.655 5
-3 -19 7 227.524 183.312 5
3 -19 -8 346.915 132.671 6
3 -19 8 27.7197 165.099 5
-3 -19 8 145.397 188.483 5
-3 -19 9 384.741 211.965 5
19 4 0 238.064 232.691 6
19 -4 0 -20.1836 190.375 6
19 4 1 751.126 318.633 6
19 4 -1 474.974 223.792 6
19 -4 1 350.592 248.839 6
19 -4 -1 653.69 303.985 6
4 -19 1 580.287 307.941 6
4 -19 -1 593.671 350.689 6
19 4 2 968.749 349.901 6
19 4 -2 1223.31 346.371 6
19 -4 2 596.501 250.857 6
19 -4 -2 1522.05 378.919 6
4 -19 2 1446.66 385.63 6
4 -19 -2 1685.07 445.69 6
19 4 3 1444.35 381.24 6
19 4 -3 1006.24 349.903 6
19 -4 3 1057.36 304.11 6
19 -4 -3 1576.22 407.216 6
4 -19 -3 1722.76 464.223 6
19 4 4 1059.75 337.238 6
19 4 -4 1634.29 400.621 6
19 -4 -4 1254.24 355.765 6
4 -19 -4 1240.14 403.971 6
19 4 -5 581.382 288.44 6
19 -4 -5 466.031 247.038 6
4 -19 -5 816.532 306.959 6
-4 -19 5 314.963 297.377 5
19 4 -6 207.753 185.553 6
19 -4 -6 165.361 233.664 6
4 -19 -6 92.9651 188.192 6
-4 19 6 116.984 187.633 4
-4 -19 6 27.8587 251.836 5
19 4 -7 17.9556 127.209 6
19 -4 -7 203.075 154.124 6
-4 19 7 296.825 179.611 4
4 -19 -7 -129.862 182.795 6
-4 -19 7 5.25466 219.378 5
4 -19 -8 254.662 120.941 6
-4 -19 8 -17.762 183.416 5
-4 -19 9 262.466 179.3 5
19 5 0 4635.1 661.429 6
19 -5 0 3944.64 607.032 6
5 -19 0 4175.41 672.073 6
19 5 1 1938.32 456.993 6
19 5 -1 2264.58 498.729 6
19 -5 1 1682.44 418.7 6
19 -5 -1 2128.08 487.509 6
5 -19 1 1965.54 458.887 6
5 -19 -1 2361.22 531.272 6
19 5 2 620.926 277.314 6
19 5 -2 801.885 332.619 6
19 -5 2 446.854 283.748 6
19 -5 -2 441.976 263.961 6
5 -19 2 374.64 258.508 6
5 -19 -2 842.161 344.758 6
19 5 3 225.44 217.849 6
19 5 -3 80.9884 208.051 6
19 -5 -3 757.251 319.492 6
5 -19 -3 68.8674 205.825 6
19 5 4 -12.761 192.724 6
19 5 -4 107.713 193.148 6
19 -5 -4 275.797 239.21 6
5 -19 -4 138.88 256.018 6
19 5 -5 -205.087 214.783 6
19 -5 -5 491.817 227.029 6
5 -19 -5 484.563 289.504 6
-5 -19 5 469.894 272.288 5
19 5 -6 1116.04 297.357 6
19 -5 -6 657.05 279.755 6
5 -19 -6 1117.69 333.442 6
-5 19 6 883.366 306.263 4
-5 -19 6 960.483 375.317 5
19 -5 -7 1356.06 306.393 6
-5 19 7 1348.45 318.88 4
5 -19 -7 1248.87 312.716 6
-5 -19 7 843.501 335.939 5
-5 19 8 270.278 148.918 4
5 -19 -8 385.029 163.616 6
-5 -19 8 329.132 258.139 5
-5 -19 9 68.4369 156.815 5
19 6 0 -57.6358 182.282 6
19 -6 0 182.551 229.399 6
6 -19 0 439.086 308 6
19 6 1 128.472 197.008 6
19 6 -1 450.647 279.981 6
19 -6 1 5.08279 165.625 6
19 -6 -1 402.308 265.394 6
6 -19 1 209.098 266.293 6
6 -19 -1 573.32 324.508 6
19 6 2 103.859 202.539 6
19 6 -2 484.884 277.029 6
19 -6 2 436.55 253.303 6
19 -6 -2 679.843 275.764 6
6 -19 2 249.336 233.003 6
6 -19 -2 711.493 306.095 6
19 6 3 14.7429 161.246 6
19 6 -3 -253.278 216.424 6
19 -6 -3 115.682 170.863 6
6 -19 -3 119.226 219.447 6
19 6 4 -57.584 151.625 6
19 6 -4 -66.6353 190.324 6
19 -6 -4 -92.4915 188.519 6
6 -19 -4 -92.1871 285.657 6
19 6 -5 160.054 211.23 6
19 -6 -5 642.922 255.133 6
6 -19 -5 278.724 181.014 6
-6 -19 5 608.032 343.278 5
19 6 -6 201.668 176.324 6
19 -6 -6 241.851 171.685 6
6 -19 -6 161.302 191.43 6
-6 19 6 -31.4975 176.858 4
-6 -19 6 -119.157 210.594 5
19 -6 -7 285.53 191.582 6
6 -19 -7 156.822 193.744 6
-6 19 7 460.789 196.246 4
-6 -19 7 -135.783 197.968 5
-6 19 8 244.124 132.061 4
-6 -19 8 479.561 245.96 5
19 7 0 1048.7 346.32 6
19 -7 0 1058.68 362.453 6
7 -19 0 1087.07 388.308 6
19 7 1 1418.26 391.189 6
19 7 -1 1449.15 379.21 6
19 -7 1 861.272 340.823 6
19 -7 -1 1601.91 415.078 6
7 -19 1 1677.98 451.571 6
7 -19 -1 910.967 402.362 6
19 7 2 689.409 324.061 6
19 7 -2 740.97 292.887 6
19 -7 2 719.635 319.385 6
19 -7 -2 1072.35 340.061 6
7 -19 2 1098.76 370.794 6
7 -19 -2 1215.28 386.783 6
19 7 3 441.476 233.286 6
19 7 -3 316.741 249.736 6
19 -7 -3 129.932 230.116 6
7 -19 -3 87.4267 233.356 6
19 7 4 -11.3959 153.507 6
19 7 -4 -28.0416 173.994 6
19 -7 -4 22.9726 197.717 6
7 -19 -4 -146.824 262.116 6
19 7 -5 155.166 175.351 6
19 -7 -5 544.783 252.63 6
7 -19 -5 133.629 198.232 6
-7 -19 5 379.659 269.12 5
19 7 -6 1268.95 273.719 6
19 -7 -6 686.224 238.016 6
7 -19 -6 205.383 178.526 6
-7 19 6 887.6 272.201 4
-7 -19 6 414.362 279.233 5
19 -7 -7 964.996 248.215 6
7 -19 -7 500.826 197.657 6
-7 19 7 508.285 234.107 4
-7 -19 7 316.793 262.192 5
-7 -19 8 269.59 180.513 5
19 8 0 -10.7958 186.827 6
19 -8 0 417.235 267.746 6
8 -19 0 9.4392 184.412 6
19 8 1 722.767 303.753 6
19 8 -1 731.241 302.14 6
19 -8 1 364.843 264.368 6
19 -8 -1 848.527 361.974 6
8 -19 1 996.468 379.446 6
8 -19 -1 1229.99 389.528 6
19 8 2 1443.21 366.611 6
19 8 -2 1732.27 393.71 6
19 -8 2 1233.66 341.977 6
19 -8 -2 2204.17 457.063 6
8 -19 2 1897.23 420.716 6
8 -19 -2 2148.49 496.811 6
19 8 3 -33.3088 167.321 6
19 8 -3 243.144 227.767 6
19 -8 -3 -126.958 192.112 6
8 -19 -3 610.895 291.071 6
19 8 4 -198.892 202.622 6
19 8 -4 -268.552 196.901 6
19 -8 -4 -165.921 168.682 6
8 -19 -4 -84.6391 194.678 6
19 8 -5 23.3236 160.869 6
19 -8 -5 69.0935 155.883 6
8 -19 -5 167.439 197.159 6
-8 -19 5 -94.4604 190.762 5
19 8 -6 -104.503 152.527 6
19 -8 -6 139.315 166.625 6
8 -19 -6 -74.9153 147.573 6
-8 19 6 104.772 150.305 4
-8 -19 6 198.91 166.247 5
19 -8 -7 225.701 140.48 6
8 -19 -7 -36.8997 140.564 6
-8 19 7 82.7789 150.193 4
-8 -19 7 461.657 231.573 5
19 9 0 3342.43 514.419 6
9 -19 0 3268.1 574.542 6
19 -9 0 2970.01 490.333 6
19 9 1 1686.05 404.879 6
19 9 -1 1950.22 398.862 6
19 -9 1 1359.26 349.019 6
19 -9 -1 1727.01 405.273 6
9 -19 1 1328.3 385.804 6
9 -19 -1 1483.11 436.133 6
19 9 2 -60.8424 182.964 6
19 9 -2 243.11 230.821 6
19 -9 2 278.732 215.541 6
19 -9 -2 209.15 230.745 6
9 -19 -2 137.001 245.361 6
19 9 3 91.4038 153.109 6
19 9 -3 -143.786 159.637 6
19 -9 -3 135.724 162.621 6
9 -19 -3 106.789 206.375 6
-9 19 3 74.1572 140.076 10
19 9 -4 771.502 246.652 6
19 -9 -4 282.144 191.157 6
9 -19 -4 722.611 288.172 6
19 9 -5 851.69 233.195 6
19 -9 -5 1293.02 301.082 6
9 -19 -5 812.941 273.829 6
-9 19 5 838.439 289.754 4
-9 -19 5 781.012 325 5
19 -9 -6 1211.87 274.523 6
9 -19 -6 663.557 246.778 6
-9 19 6 879.193 282.733 4
-9 19 -6 1056.16 271.354 10
-9 -19 6 1039.08 325.645 5
-9 19 7 811.391 221.986 4
-9 -19 7 576.343 239.526 5
19 10 0 -86.9368 154.607 6
10 -19 0 -159.894 179.593 6
19 10 1 40.8065 155.935 6
19 10 -1 332.19 195.253 6
19 -10 1 0.94426 158.301 6
19 -10 -1 -35.3656 205.639 6
10 -19 1 325.69 169.727 6
10 -19 -1 90.9328 229.748 6
19 10 2 25.8733 179.299 6
19 10 -2 249.361 163.733 6
19 -10 -2 229.092 218.355 6
10 -19 -2 204.978 211.28 6
-10 19 2 113.014 178.253 10
19 10 -3 735.671 245.168 6
19 -10 -3 680.888 285.54 6
10 -19 -3 737.371 298.778 6
-10 19 3 405.164 338.242 10
19 10 -4 541.697 206.167 6
19 -10 -4 842.024 276.662 6
10 -19 -4 913.613 291.105 6
19 -10 -5 404.212 208.688 6
10 -19 -5 70.2666 138.473 6
-10 19 5 324.592 187.425 4
-10 19 -5 623.08 241.835 10
-10 -19 5 265.223 230.062 5
19 -10 -6 265.269 150.336 6
10 -19 -6 103.275 144.845 6
-10 19 6 352.756 176.254 4
-10 -19 6 26.0587 158.552 5
19 11 0 45.7044 163.916 6
19 -11 0 222.281 227.995 6
11 -19 0 5.38144 166.797 6
-11 19 0 235.398 186.574 10
19 11 -1 145.405 152.475 6
19 -11 1 79.9458 149.505 6
19 -11 -1 277.068 204.913 6
11 -19 1 242.456 147.555 6
11 -19 -1 69.7039 163.022 6
-11 19 1 308.558 237.503 10
-11 19 -1 453.268 263.674 10
19 11 -2 2.65063 139.606 6
19 -11 -2 104.92 171.376 6
11 -19 -2 -10.45 153.388 6
-11 19 2 -113.352 176.43 10
-11 19 -2 -323.378 244.218 10
19 11 -3 96.5274 146.945 6
19 -11 -3 -135.959 162.535 6
11 -19 -3 -4.48067 155.587 6
-11 19 3 327.14 123.044 10
-11 19 -3 -15.543 156.019 10
19 -11 -4 211.182 162.833 6
11 -19 -4 96.2431 213.592 6
-11 19 4 277.265 174.489 4
-11 19 -4 626.615 247.221 10
19 -11 -5 934.709 262.83 6
11 -19 -5 1322.21 352.127 6
-11 19 5 209.893 137.75 4
-11 19 -5 286.245 172.067 10
-11 -19 5 550.522 215.536 5
19 -12 0 -197.978 188.489 6
12 -19 0 -94.2852 148.473 6
-12 19 0 107.404 141.696 10
19 -12 -1 424.204 219.622 6
12 -19 -1 22.9295 151.846 6
-12 19 1 -71.6801 159.739 10
-12 19 -1 -49.0527 178.453 10
19 -12 -2 569.823 232.181 6
12 -19 -2 391.978 213.792 6
-12 19 2 513.331 212.326 10
-12 19 -2 635.624 245.632 10
19 -12 -3 991.174 271.443 6
12 -19 -3 749.764 249.117 6
-12 19 -3 607.021 217.289 10
19 -12 -4 306.168 179.161 6
12 -19 -4 293.936 188.719 6
-12 19 4 -5.44001 111.121 4
-12 19 -4 310.765 174.745 10
-12 -19 4 81.9131 134.258 5
-13 19 0 -91.7391 128.684 10
19 -13 -1 -89.8569 135.877 6
13 -19 -1 -154.549 157.948 6
-13 19 1 -127.076 115.311 10
-13 19 -1 -10.7102 123.86 10
19 -13 -2 -3.50271 117.301 6
13 -19 -2 -10.0118 128.029 6
-13 19 -2 192.122 145.488 10
19 -13 -3 55.4745 111.391 6
13 -19 -3 -94.6417 108.947 6
-13 19 -3 -120.929 166.266 10
20 0 0 366.335 244.654 6
20 0 1 1260.09 393.178 6
20 0 -1 1469.32 376.49 6
20 0 2 915.299 338.164 6
20 0 -2 1047.45 355.669 6
20 0 3 145.007 189.379 6
20 0 -3 298.202 239.165 6
20 0 -4 203.121 198.819 6
0 -20 4 -274.564 234.252 5
20 0 -5 -45.3 173.072 6
0 -20 -5 257.763 203.683 6
0 -20 5 -90.6707 188.72 5
20 0 -6 137.032 138.515 6
0 -20 -6 49.573 166.919 6
0 -20 6 -94.5763 218.986 5
20 0 -7 158.3 123.155 6
0 -20 7 -304.425 211.254 5
0 -20 8 -125.181 143.273 5
20 1 0 -132.2 173.767 6
20 -1 0 -116.883 200.691 6
20 1 1 25.072 219.089 6
20 1 -1 36.509 186.274 6
20 -1 1 132.304 210.119 6
20 -1 -1 654.97 256.242 6
20 1 2 188.072 229.633 6
20 -1 2 184.352 263.992 6
20 1 -2 387.255 256.544 6
20 -1 -2 175.053 212.751 6
20 1 3 -172.441 235.364 6
20 -1 3 327.925 222.587 6
20 1 -3 -121.423 170.969 6
20 -1 -3 168.086 219.474 6
-1 -20 3 -101.748 224.221 5
20 1 -4 62.2241 173.049 6
20 -1 -4 257.224 201.501 6
1 -20 -4 35.0945 189.767 6
-1 -20 4 -21.6746 202.988 5
20 1 -5 -230.156 208.029 6
20 -1 -5 120.536 198.645 6
1 -20 -5 257.019 242.54 6
-1 -20 5 -18.0042 185.847 5
20 1 -6 14.2615 148.07 6
20 -1 -6 437.64 197.626 6
1 -20 -6 3.31174 170.618 6
-1 -20 -6 4.45388 161.774 6
1 -20 6 -125.535 166.649 5
-1 -20 6 -16.5288 232.073 5
20 1 -7 218.54 153.083 6
20 -1 -7 -358.185 199.065 6
1 -20 -7 419.84 202.692 6
-1 -20 -7 -215.655 146.733 6
1 -20 7 206.981 199.553 5
-1 -20 7 -198.716 211.595 5
-1 -20 8 63.2166 139.92 5
20 2 0 1774.3 414.232 6
20 -2 0 1882.7 430.974 6
20 2 1 611.937 299.285 6
20 2 -1 592.461 255.778 6
20 -2 1 788.174 304.836 6
20 -2 -1 1426.03 388.86 6
2 -20 1 428.346 285.5 6
20 2 2 194.934 240.137 6
20 2 -2 495.325 266.736 6
20 -2 2 272.441 243.63 6
20 -2 -2 104.123 226.688 6
2 -20 2 284.872 221.51 6
2 -20 -2 862.648 373.757 6
-2 -20 2 63.1783 241.624 5
20 2 3 97.7376 214.815 6
20 -2 3 -184.837 232.754 6
20 2 -3 -193.947 200.958 6
20 -2 -3 -18.8475 217.227 6
2 -20 -3 445.895 267.602 6
-2 -20 3 294.268 236.07 5
20 2 -4 29.624 172.794 6
20 -2 -4 306.623 225.697 6
2 -20 -4 196.661 228.358 6
-2 -20 4 101.915 240.966 5
20 2 -5 279.735 198.669 6
20 -2 -5 285.776 208.055 6
2 -20 -5 100.313 190.76 6
-2 -20 5 12.8677 243.276 5
20 2 -6 411.155 247.06 6
20 -2 -6 111.415 140.88 6
2 -20 -6 381.46 229.287 6
-2 -20 -6 311.839 206.165 6
-2 -20 6 -186.687 180.923 5
20 -2 -7 142.059 113.209 6
2 -20 -7 -377.177 191.072 6
-2 -20 -7 -219.518 175.258 6
-2 -20 7 -162.404 216.104 5
-2 -20 8 -246.841 192.683 5
20 3 0 28.7608 179.455 6
20 -3 0 138.831 179.596 6
3 -20 0 161.304 240.993 6
20 3 1 61.6479 218.623 6
20 3 -1 410.679 227.432 6
20 -3 1 -10.516 189.184 6
20 -3 -1 -45.3479 192.849 6
3 -20 1 57.2121 254.605 6
3 -20 -1 -2.97376 262.469 6
20 3 2 -35.581 161.524 6
20 3 -2 84.5146 164.268 6
20 -3 2 -97.278 238.061 6
20 -3 -2 141.255 165.887 6
3 -20 2 -83.2202 166.327 6
3 -20 -2 99.7345 205.525 6
20 3 3 -97.0401 172.986 6
20 3 -3 -388.237 232.738 6
20 -3 -3 143.983 193.522 6
3 -20 -3 100.61 198.353 6
-3 -20 3 223.006 285.216 5
20 3 -4 -0.57012 169.219 6
20 -3 -4 63.2766 158.375 6
3 -20 -4 243.606 220.709 6
-3 -20 4 -189.302 202.956 5
20 3 -5 80.2183 188.186 6
20 -3 -5 9.54849 166.21 6
3 -20 -5 393.961 231.968 6
-3 20 5 -180.964 228.298 4
-3 -20 5 216.211 261.324 5
20 3 -6 -192.996 179.772 6
20 -3 -6 -33.6343 135.66 6
3 -20 -6 190.184 205.699 6
-3 -20 6 -129.878 213.843 5
20 3 -7 292.946 138.927 6
20 -3 -7 54.1369 135.998 6
3 -20 -7 -116.858 173.382 6
-3 -20 -7 -208.79 162.703 6
-3 -20 7 -83.5598 178.827 5
-3 -20 8 -76.5427 127.605 5
20 4 0 538.352 281.221 6
20 -4 0 325.4 239.422 6
4 -20 0 -9.23337 194.588 6
20 4 1 38.0771 168.054 6
20 4 -1 310.31 240.81 6
20 -4 1 43.0707 164.753 6
20 -4 -1 200.547 221.074 6
4 -20 1 109.017 229.315 6
4 -20 -1 164.158 201.627 6
20 4 2 -54.6208 209.974 6
20 4 -2 449.096 253.072 6
20 -4 2 19.1043 179.192 6
20 -4 -2 -123.692 219.756 6
4 -20 2 339.613 255.823 6
4 -20 -2 14.9136 232.034 6
20 4 3 132.7 244.388 6
20 4 -3 66.4261 187.739 6
20 -4 -3 -105.911 218.467 6
4 -20 -3 -631.667 290.314 6
-4 -20 3 137.511 221.236 5
20 4 -4 -195.267 226.197 6
20 -4 -4 -200.475 188.648 6
4 -20 -4 303.279 245.394 6
-4 -20 4 -93.7042 201.462 5
20 4 -5 -108.914 174.913 6
20 -4 -5 0.51862 179.543 6
4 -20 -5 195.188 231.342 6
-4 20 5 12.4227 149.42 4
-4 -20 5 35.6964 216.909 5
20 4 -6 6.75398 152.325 6
20 -4 -6 158.454 163.375 6
-4 20 6 279.366 178.588 4
4 -20 -6 -34.509 150.388 6
-4 -20 6 280.973 209.184 5
20 -4 -7 251.543 139.817 6
4 -20 -7 79.8797 131.131 6
-4 -20 -7 187.802 165.244 6
-4 -20 7 145.736 206.93 5
-4 -20 8 -6.45454 166.698 5
20 5 0 2.41871 197.869 6
20 -5 0 -121.323 244.666 6
5 -20 0 12.9671 190.302 6
20 5 1 65.2204 197.548 6
20 5 -1 67.7051 178.724 6
20 -5 1 152.606 159.345 6
20 -5 -1 -86.9307 173.171 6
5 -20 1 -4.50063 188.605 6
5 -20 -1 -39.763 209.55 6
20 5 2 129.053 182.284 6
20 5 -2 129.375 198.367 6
20 -5 2 231.594 211.97 6
20 -5 -2 -123.996 165.591 6
5 -20 2 255.44 239.546 6
5 -20 -2 544.906 268.338 6
20 5 3 381.206 197.869 6
20 5 -3 466.267 240.503 6
20 -5 -3 286.955 218.885 6
5 -20 -3 350.146 185.326 6
20 5 -4 -122.95 241.856 6
20 -5 -4 458.801 227.684 6
5 -20 -4 -12.7437 179.323 6
-5 -20 4 500.893 288.766 5
20 5 -5 86.5709 149.869 6
20 -5 -5 -405.538 225.764 6
5 -20 -5 -339.506 225.876 6
-5 20 5 -225.295 190.748 4
-5 -20 5 102.099 188.523 5
20 5 -6 97.8272 160.889 6
20 -5 -6 -149.969 157.807 6
5 -20 -6 -227.706 217.848 6
-5 20 6 193.173 156.138 4
-5 -20 6 -25.5833 175.275 5
20 -5 -7 -48.0172 109.022 6
5 -20 -7 181.685 160.839 6
-5 -20 7 293.899 226.201 5
20 6 0 -234.551 203.536 6
20 -6 0 -50.4758 187.071 6
20 6 1 75.329 203.629 6
20 6 -1 570.583 251.806 6
20 -6 1 183.759 216.334 6
20 -6 -1 -205.208 226.446 6
6 -20 1 143.578 225.203 6
6 -20 -1 416.777 273.369 6
20 6 2 311.691 226.092 6
20 6 -2 120.006 160.296 6
20 -6 2 167.661 176.674 6
20 -6 -2 22.0476 166.049 6
6 -20 2 144.781 175.643 6
6 -20 -2 162.285 215.635 6
20 6 3 281.088 227.747 6
20 6 -3 -45.9909 172.386 6
20 -6 -3 -57.7828 175.494 6
6 -20 -3 112.034 178.63 6
20 6 -4 27.5991 146.632 6
20 -6 -4 148.828 201.546 6
6 -20 -4 -227.363 217.208 6
-6 -20 4 -292.282 253.862 5
20 6 -5 398.328 187.828 6
20 -6 -5 159.966 166.132 6
6 -20 -5 -193.946 196.994 6
-6 20 5 146.725 191.888 4
-6 -20 5 -168.29 210.456 5
20 6 -6 314.229 164.609 6
20 -6 -6 -182.817 137.161 6
6 -20 -6 68.0246 138.956 6
-6 20 6 -23.7659 133.601 4
-6 -20 6 287.23 221.866 5
6 -20 -7 30.8737 131.926 6
-6 -20 7 215.145 200.186 5
20 7 0 73.5277 200.129 6
20 -7 0 127.697 151.709 6
7 -20 0 151.391 176.845 6
20 7 1 101.293 158.19 6
20 7 -1 359.269 269.742 6
20 -7 1 46.3467 156.387 6
20 -7 -1 65.7513 169.739 6
7 -20 1 84.8167 169.807 6
7 -20 -1 467.104 303.983 6
20 7 2 603.872 260.543 6
20 7 -2 1545.08 348.326 6
20 -7 2 682.979 231.329 6
20 -7 -2 1154 329.709 6
7 -20 -2 268.525 232.314 6
20 7 3 443.819 239.467 6
20 7 -3 223.163 200.114 6
20 -7 -3 422.641 252.346 6
7 -20 -3 283.245 210.022 6
20 7 -4 -64.6755 161.355 6
20 -7 -4 63.3374 194.586 6
7 -20 -4 339.994 211.249 6
-7 -20 4 -68.5378 167.89 5
20 7 -5 433.211 193.022 6
20 -7 -5 171.951 168.92 6
7 -20 -5 -148.595 187.61 6
-7 20 5 74.8417 159.425 4
-7 -20 5 195.245 264.657 5
20 -7 -6 -189.77 161.939 6
7 -20 -6 -147.732 161.333 6
-7 20 6 -105.995 132.639 4
-7 -20 6 -38.7891 170.251 5
-7 -20 7 63.4664 150.227 5
20 8 0 360.584 226.399 6
20 -8 0 421.666 237.264 6
8 -20 0 567.176 282.135 6
20 8 1 104.559 197.369 6
20 8 -1 475.158 230.86 6
20 -8 1 185.764 210.182 6
20 -8 -1 107 155.47 6
8 -20 1 635.555 308.705 6
8 -20 -1 -63.7273 201.587 6
20 8 2 136.865 168.849 6
20 8 -2 82.934 158.639 6
20 -8 -2 -19.8059 161.142 6
8 -20 -2 1.7428 199.903 6
20 8 3 -26.9314 130.438 6
20 8 -3 -39.607 166.668 6
20 -8 -3 61.0296 174.599 6
8 -20 -3 117.538 178.583 6
-8 20 3 -103.373 150.233 10
20 8 -4 -327.648 194.234 6
20 -8 -4 117.269 175.58 6
8 -20 -4 145.845 185.506 6
-8 -20 4 -140.43 182.056 5
20 8 -5 -49.6761 110.851 6
20 -8 -5 -84.5751 127.431 6
8 -20 -5 -196.664 200.14 6
-8 20 5 54.2352 161.295 4
-8 -20 5 66.3833 192.928 5
20 -8 -6 -88.0785 137.621 6
8 -20 -6 100.761 140.445 6
-8 20 6 -46.8667 132.78 4
-8 -20 6 -103.412 137.337 5
20 9 0 -82.2162 147.929 6
20 -9 0 -2.28461 142.876 6
9 -20 0 75.5848 166.876 6
20 9 1 76.5287 153.069 6
20 9 -1 -78.462 134.956 6
20 -9 1 -90.4186 142.783 6
20 -9 -1 144.414 155.425 6
9 -20 1 6.28637 131.216 6
9 -20 -1 183.294 221.868 6
20 9 2 135.346 144.689 6
20 9 -2 -183.308 138.011 6
20 -9 -2 66.9539 188.082 6
9 -20 -2 -40.5826 153.59 6
-9 20 2 -4.46986 158.207 10
20 9 -3 33.7933 125.7 6
20 -9 -3 106.8 162.588 6
9 -20 -3 -8.99963 152.111 6
20 9 -4 312.902 159.416 6
20 -9 -4 385.917 203.333 6
9 -20 -4 3.12926 140.345 6
-9 -20 4 379.029 210.898 5
20 -9 -5 -218.368 167.106 6
9 -20 -5 -201.376 175.718 6
-9 20 5 -219.233 185.8 4
-9 20 -5 -342.254 164.338 10
-9 -20 5 44.3996 130.608 5
20 10 0 -57.8993 160.045 6
20 -10 0 39.8159 120.581 6
10 -20 0 -53.2844 144.437 6
-10 20 0 -59.4068 155.582 10
20 10 1 19.0119 133.31 6
20 10 -1 380.336 172.423 6
20 -10 1 119.143 133.383 6
20 -10 -1 3.00711 132.838 6
10 -20 -1 175.216 149.119 6
-10 20 1 -259.189 186.258 10
20 10 -2 215.728 144.036 6
20 -10 -2 44.7421 138.374 6
10 -20 -2 18.0876 162.459 6
-10 20 2 -84.7256 149.504 10
20 10 -3 -226.227 126.863 6
20 -10 -3 -251.946 212.939 6
10 -20 -3 -25.9127 136.925 6
-10 20 -3 -240.398 216.109 10
20 -10 -4 -97.4984 115.184 6
10 -20 -4 11.3406 134.564 6
-10 20 4 43.8508 117.175 4
-10 20 -4 411.914 206.492 10
-10 -20 4 334.604 188.682 5
20 -10 -5 28.2873 104.153 6
10 -20 -5 268.486 135.32 6
-10 20 5 -48.9161 108.213 4
-10 -20 5 -132.658 151.38 5
20 -11 0 -88.0788 162.807 6
-11 20 0 10.435 130.854 10
20 -11 -1 92.2426 134.265 6
11 -20 -1 -27.4123 130.371 6
-11 20 1 5.41307 126.03 10
-11 20 -1 -134.995 162.072 10
20 -11 -2 57.2396 142.057 6
11 -20 -2 91.4216 143.235 6
-11 20 -2 312.557 198.631 10
20 -11 -3 161.897 154.317 6
11 -20 -3 279.704 149.559 6
-11 20 3 186.909 134.125 4
-11 20 -3 461.788 206.5 10
-11 -20 3 131.207 160.039 5
-12 20 -1 -182.526 155.34 10
21 0 0 34.1343 202.832 6
21 0 1 1186.26 349.505 6
21 0 -1 1673.72 374.769 6
21 0 2 1515.24 369.526 6
21 0 -2 1460.99 351.943 6
0 -21 2 1398.58 382.69 6
21 0 3 1919 366.203 6
21 0 -3 2564.04 444.837 6
21 0 -4 1319.25 323.191 6
0 -21 -4 1817.71 405.777 6
21 0 -5 556.881 234.836 6
0 -21 -5 487.386 237.898 6
21 0 -6 246.688 152.454 6
0 -21 -6 462.064 225.639 6
21 1 0 119.614 179.301 6
21 -1 0 73.8533 187.025 6
1 -21 0 -8.45846 205.491 6
21 1 1 -76.003 153.805 6
21 1 -1 -297.631 209.26 6
21 -1 1 155.26 175.839 6
21 -1 -1 -87.8053 171.203 6
1 -21 1 -213.173 229.524 6
1 -21 -1 -140.078 204.227 6
21 1 2 23.2571 199.679 6
21 -1 2 -25.4049 154.097 6
21 1 -2 52.9915 161.661 6
21 -1 -2 246.669 182.048 6
1 -21 2 449.964 275.53 6
1 -21 -2 -21.7633 192.16 6
21 1 3 281.163 181.623 6
21 1 -3 -292.03 209.753 6
21 -1 -3 99.3151 177.062 6
1 -21 -3 -67.9461 183.348 6
21 1 -4 -45.2235 158.801 6
21 -1 -4 127.286 169.149 6
1 -21 -4 85.9873 191.448 6
21 1 -5 44.8183 162.247 6
21 -1 -5 -13.3641 140.748 6
1 -21 -5 236.286 188.873 6
-1 -21 -5 -57.196 162.41 6
-1 -21 5 85.3091 144.257 5
21 1 -6 160.454 117.74 6
21 -1 -6 667.006 208.143 6
1 -21 -6 473.515 208.963 6
-1 -21 -6 181.226 171.107 6
-1 -21 6 32.0003 140.085 5
21 2 0 52.061 171.287 6
21 -2 0 -176.181 203.182 6
2 -21 0 280.197 229.081 6
21 2 1 158.117 194.328 6
21 2 -1 423.783 235.051 6
21 -2 1 -88.7987 176.772 6
21 -2 -1 97.5267 180.037 6
2 -21 1 -54.7941 201.051 6
2 -21 -1 -12.9175 209.194 6
21 2 2 1657.11 362.939 6
21 2 -2 1509.89 354.129 6
21 -2 2 1461.27 368.76 6
21 -2 -2 2252.25 430.7 6
2 -21 2 1639.22 378.014 6
21 2 3 1781.11 357.548 6
21 2 -3 2512.48 438.785 6
21 -2 -3 2675.25 425.472 6
2 -21 -3 2907.38 500.226 6
21 2 -4 1942.97 362.978 6
21 -2 -4 1696.65 364.007 6
2 -21 -4 1716.81 376.729 6
-2 -21 4 944.744 333.555 5
21 2 -5 1123.41 278.384 6
21 -2 -5 689.976 242.864 6
2 -21 -5 409.746 241.744 6
-2 -21 -5 991.478 286.952 6
-2 -21 5 762.771 297.883 5
21 2 -6 -32.379 137.762 6
21 -2 -6 -124.834 144.955 6
2 -21 -6 220.969 156.523 6
-2 -21 -6 122.663 146.742 6
-2 -21 6 335.912 183.959 5
21 3 0 654.51 293.286 6
21 -3 0 551.061 267.664 6
3 -21 0 526.768 232.465 6
21 3 1 641.445 292.047 6
21 3 -1 1061.36 332.355 6
21 -3 1 567.685 246.535 6
21 -3 -1 168.78 200.753 6
3 -21 1 195.141 229.675 6
3 -21 -1 252.876 295.736 6
21 3 2 603.868 260.306 6
21 3 -2 138.973 171.398 6
21 -3 2 373.883 214.43 6
21 -3 -2 449.398 220.117 6
3 -21 2 235.001 206.624 6
3 -21 -2 191.986 233.808 6
-3 -21 2 375.74 198.626 5
21 3 3 7.51564 147.331 6
21 3 -3 -7.07403 154.249 6
21 -3 -3 243.132 181.938 6
3 -21 -3 103.184 171.213 6
-3 -21 3 571.538 302.452 5
21 3 -4 73.1896 159.671 6
21 -3 -4 -205.951 183.678 6
3 -21 -4 190.952 233.717 6
-3 -21 4 179.995 184.747 5
21 3 -5 22.2462 150.832 6
21 -3 -5 227.443 165.642 6
3 -21 -5 403.205 226.76 6
-3 -21 5 -125.042 207.262 5
21 3 -6 568.647 184.076 6
21 -3 -6 459 193.041 6
3 -21 -6 111.135 149.113 6
-3 -21 -6 443.467 177.442 6
-3 -21 6 33.1638 152.166 5
21 4 0 97.0048 231.396 6
21 -4 0 -3.66156 158.363 6
4 -21 0 -109.776 198.679 6
21 4 1 187.448 178.737 6
21 -4 1 29.8044 152.889 6
21 -4 -1 398.969 251.296 6
4 -21 1 192.859 210.78 6
4 -21 -1 512.229 290.897 6
-4 -21 1 171.323 167.158 5
21 4 2 482.34 253.386 6
21 4 -2 546.885 219.001 6
21 -4 2 329.433 222.981 6
21 -4 -2 886.69 295.833 6
4 -21 -2 631.171 323.782 6
-4 -21 2 468.36 286.727 5
21 4 3 464.414 218.66 6
21 4 -3 1123.24 299.775 6
21 -4 -3 1090.07 296.274 6
4 -21 -3 1320.43 345.767 6
-4 -21 3 460.75 289.9 5
21 4 -4 857.311 253.551 6
21 -4 -4 1098.21 296.723 6
4 -21 -4 879.659 280.391 6
-4 -21 4 630.601 311.202 5
21 4 -5 242.196 166.609 6
21 -4 -5 682.828 235.376 6
-4 21 5 122.764 142.225 4
4 -21 -5 165.56 166.36 6
-4 -21 5 11.5605 155.936 5
21 -4 -6 208.323 140.265 6
4 -21 -6 246.096 170.805 6
-4 -21 -6 322.738 148.496 6
-4 -21 6 110.993 149.745 5
21 5 0 2098.6 417.222 6
21 -5 0 2348.33 445.053 6
5 -21 0 2175.8 468.626 6
21 5 1 2067.54 419.151 6
21 5 -1 2282.42 415.776 6
21 -5 1 1309.26 326.335 6
21 -5 -1 1743.23 410.307 6
5 -21 1 2149.81 431.965 6
5 -21 -1 2172.8 455.045 6
21 5 2 540.562 249.722 6
21 5 -2 1467.36 336.734 6
21 -5 2 620.231 236.335 6
21 -5 -2 1364.27 350.765 6
5 -21 -2 916.219 328.962 6
-5 -21 2 384.642 260.886 5
21 5 3 174.702 186.655 6
21 5 -3 482.574 194.545 6
21 -5 -3 -189.877 180.496 6
5 -21 -3 -83.3563 184.526 6
-5 -21 3 -50.324 170.961 5
21 5 -4 111.826 146.85 6
21 -5 -4 189.088 173.717 6
5 -21 -4 50.1287 157.338 6
-5 -21 4 8.53921 159.789 5
21 5 -5 175.625 156.246 6
21 -5 -5 419.407 200.212 6
5 -21 -5 500.967 232.924 6
-5 21 5 -13.432 112.449 4
-5 -21 5 364.595 228.85 5
21 -5 -6 521.147 166.284 6
5 -21 -6 948.206 244.02 6
-5 -21 6 787.434 256.401 5
21 6 0 348.789 226.92 6
21 -6 0 302.205 217.137 6
6 -21 0 26.8661 180.053 6
21 6 1 137.974 176.254 6
21 6 -1 603.801 253.68 6
21 -6 1 209.173 168.067 6
21 -6 -1 460.983 251.705 6
6 -21 1 125.209 200.025 6
6 -21 -1 333.907 242.026 6
21 6 2 156.142 177.017 6
21 6 -2 313.815 203.102 6
21 -6 -2 359.435 230.594 6
6 -21 -2 64.1214 170.084 6
-6 -21 2 189.063 212.213 5
21 6 3 194.937 144.841 6
21 6 -3 236.745 156.119 6
21 -6 -3 192.327 173.496 6
6 -21 -3 67.0493 184.325 6
-6 -21 3 443.502 231.614 5
21 6 -4 47.7862 118.362 6
21 -6 -4 184.645 148.017 6
6 -21 -4 83.5805 192.168 6
-6 -21 4 -130.27 160.663 5
21 6 -5 44.6562 112.643 6
21 -6 -5 97.2095 131.911 6
6 -21 -5 -56.2837 138.975 6
-6 -21 5 -122.717 133.38 5
21 7 0 1398.42 327.023 6
21 -7 0 1523.98 327.844 6
7 -21 0 1402.42 348.497 6
21 7 1 1120.34 288.089 6
21 7 -1 1162.55 312.518 6
21 -7 1 896.51 283.193 6
21 -7 -1 1160.68 311.594 6
7 -21 1 1113.04 278.688 6
7 -21 -1 1238.08 359.562 6
21 7 2 582.569 219.281 6
21 7 -2 633.545 235.816 6
21 -7 -2 752.881 264.119 6
7 -21 -2 498.285 262.544 6
21 7 3 17.3944 101.503 6
21 7 -3 456.129 185.64 6
21 -7 -3 340.836 189.464 6
7 -21 -3 274.256 180.73 6
-7 -21 3 545.949 231.168 5
21 7 -4 69.0829 138.609 6
21 -7 -4 94.7666 140.066 6
7 -21 -4 -23.5641 148.177 6
-7 21 4 -159.074 147.688 4
-7 -21 4 141.646 153.453 5
21 -7 -5 129.257 145.921 6
7 -21 -5 -77.7634 152.904 6
-7 -21 5 -108.625 134.665 5
21 8 0 199.677 166.212 6
21 -8 0 303.085 204.237 6
8 -21 0 146.72 187.175 6
21 8 1 399.94 217.083 6
21 8 -1 188.004 165.37 6
21 -8 1 31.9001 111.458 6
21 -8 -1 781.131 245.637 6
8 -21 -1 300.923 216.92 6
21 8 2 302.935 152.565 6
21 8 -2 606.803 233.216 6
21 -8 -2 415.788 195.926 6
8 -21 -2 364.329 204.122 6
-8 21 2 121.118 142.033 10
21 8 -3 251.444 146.917 6
21 -8 -3 152.359 158.848 6
8 -21 -3 248.309 180.807 6
-8 -21 3 157.184 191.254 5
21 8 -4 40.9843 113.651 6
21 -8 -4 -52.5092 150.903 6
8 -21 -4 94.3605 151.743 6
-8 21 4 67.1393 161.467 4
-8 -21 4 35.5783 155.971 5
21 9 0 2254.3 353.189 6
21 -9 0 2230.98 338.621 6
-9 21 0 2148.8 393.495 10
21 9 1 1456.88 273.755 6
21 9 -1 1519.97 306.762 6
21 -9 -1 2017.7 346.503 6
9 -21 -1 1668.48 324.208 6
-9 21 1 1651.89 320.57 10
21 9 -2 323.672 184.545 6
21 -9 -2 397.216 211.565 6
9 -21 -2 538.541 209.39 6
-9 -21 2 670.543 216.75 5
21 9 -3 93.7774 109.124 6
21 -9 -3 94.6602 139.476 6
9 -21 -3 90.6244 133.465 6
-9 21 -3 -115.715 146.074 10
-9 -21 3 261.081 168.052 5
-10 21 0 -209.008 135.821 10
-10 21 -1 253.61 165.424 10
-10 21 -2 -26.9705 104.491 10
22 0 0 261.216 196.449 6
0 -22 0 189.088 182.074 6
22 0 1 -56.7461 173.685 6
22 0 -1 -20.8537 174.702 6
0 -22 1 277.75 226.671 6
0 -22 -1 -35.6883 203.508 6
22 0 2 -115.148 163.665 6
22 0 -2 293.671 187.824 6
0 -22 2 -68.6041 165.681 6
0 -22 -2 -99.3273 168.515 6
22 0 -3 234.458 180.067 6
0 -22 -3 325.212 198.201 6
22 0 -4 29.8604 129.903 6
0 -22 -4 168.496 168.246 6
22 0 -5 138.532 136.044 6
0 -22 -5 454.45 194.205 6
22 1 0 65.0749 137.419 6
22 -1 0 -192.237 203.685 6
1 -22 0 -171.871 206.492 6
-1 -22 0 -145.012 221.93 6
22 1 1 -193.915 178.327 6
22 1 -1 128.886 163.328 6
22 -1 1 42.6174 144.027 6
22 -1 -1 76.6766 148.753 6
1 -22 1 66.3484 142.759 6
1 -22 -1 288.161 214.43 6
-1 -22 1 -73.104 147.294 6
-1 -22 -1 -5.32551 160.208 6
22 1 2 -73.0777 121.129 6
22 -1 2 30.2316 122.957 6
22 1 -2 12.0224 142.401 6
22 -1 -2 5.3903 137.878 6
1 -22 -2 -104.178 199.523 6
-1 -22 2 298.605 152.103 6
-1 -22 -2 227.968 208.793 6
22 1 -3 23.0685 122.013 6
22 -1 -3 -65.8904 171.229 6
1 -22 -3 14.8192 144.803 6
-1 -22 -3 113.451 196.474 6
22 1 -4 378.185 180.318 6
22 -1 -4 -157.714 143.235 6
1 -22 -4 71.0854 154.598 6
-1 -22 -4 0.87593 155.782 6
22 1 -5 -70.8252 131.918 6
22 -1 -5 444.958 177.079 6
1 -22 -5 447.461 203.546 6
-1 -22 -5 98.364 155.378 6
22 2 0 -93.6646 188.654 6
22 -2 0 -244.512 188.877 6
2 -22 0 -47.2346 175.16 6
22 2 1 152.248 160.167 6
22 2 -1 121.308 159.453 6
22 -2 1 191.735 178.233 6
22 -2 -1 -30.5122 161.299 6
2 -22 1 -108.347 181.28 6
2 -22 -1 -31.4302 180.002 6
22 2 2 -139.233 132.838 6
22 -2 2 -18.0783 139.873 6
22 2 -2 -186.808 177.491 6
22 -2 -2 -12.8957 141.58 6
2 -22 -2 -73.9789 192.533 6
-2 -22 2 6.66224 130.582 6
22 2 -3 -109.489 134.362 6
22 -2 -3 -38.8067 142.016 6
2 -22 -3 106.609 170.156 6
-2 -22 -3 275.915 212.241 6
22 2 -4 -44.151 120.534 6
22 -2 -4 -22.2017 129.205 6
2 -22 -4 397.552 234.368 6
-2 -22 -4 434.03 212.218 6
22 2 -5 -8.26107 100.692 6
22 -2 -5 300.871 139.293 6
2 -22 -5 -91.4304 142.703 6
-2 -22 -5 -89.4681 153.274 6
22 3 0 -60.6641 134.454 6
22 -3 0 -70.4014 130.331 6
3 -22 0 -366.217 201.213 6
22 3 1 -79.0962 134.229 6
22 3 -1 -36.6825 142.28 6
22 -3 1 -86.763 130.54 6
22 -3 -1 77.3537 148.864 6
3 -22 1 -42.0207 154.966 6
3 -22 -1 -40.3148 160.514 6
22 3 2 47.1912 126.902 6
22 3 -2 155.802 129.481 6
22 -3 -2 -58.3067 136.245 6
3 -22 -2 85.8718 160.401 6
-3 -22 2 -159.089 138.336 6
22 3 -3 -216.122 170.585 6
22 -3 -3 12.6143 122.516 6
3 -22 -3 40.1129 147.661 6
22 3 -4 173.667 132.094 6
22 -3 -4 23.1592 129.88 6
3 -22 -4 -58.4822 156.32 6
-3 -22 -4 232.965 182.434 6
22 -3 -5 -429.054 157.906 6
3 -22 -5 -575.016 187.273 6
-3 -22 -5 -278.821 175.194 6
22 4 0 -93.4892 152.992 6
4 -22 0 120.014 145.031 6
22 4 1 155.479 135.425 6
22 4 -1 -15.0155 142.914 6
22 -4 1 -511.33 186.391 6
22 -4 -1 -113.473 177.797 6
4 -22 1 -60.4001 137.199 6
4 -22 -1 55.5276 188.209 6
22 4 2 163.282 143.941 6
22 4 -2 -182.297 179.924 6
22 -4 -2 -26.3892 126.008 6
4 -22 -2 -87.7637 184.587 6
22 4 -3 122.949 139.421 6
22 -4 -3 36.2482 126.301 6
4 -22 -3 -130.093 182.13 6
22 4 -4 161.528 134.306 6
22 -4 -4 71.19 114.559 6
-4 -22 -4 37.1963 129.419 6
22 5 0 -151.797 140.462 6
22 -5 0 180.914 142.703 6
5 -22 0 144.324 157.176 6
22 5 1 -141.163 162.235 6
22 5 -1 -93.5935 151.356 6
22 -5 1 73.5845 115.502 6
22 -5 -1 251.178 190.255 6
5 -22 -1 94.6061 193.654 6
22 5 2 13.7298 104.304 6
22 5 -2 33.64 132.143 6
22 -5 -2 -27.4169 139.647 6
5 -22 -2 -89.1109 157.405 6
22 5 -3 77.6565 126.706 6
22 -5 -3 -6.73725 124.515 6
5 -22 -3 190.332 159.118 6
22 5 -4 -49.4051 112.808 6
22 -5 -4 -241.075 143.313 6
5 -22 -4 -60.514 114.671 6
22 6 0 47.2621 112.282 6
22 -6 0 18.1036 110.109 6
6 -22 0 -199.791 174.722 6
22 6 1 209.764 145.644 6
22 6 -1 -168.831 159.775 6
22 -6 -1 -110.977 149.852 6
6 -22 -1 13.3202 124.823 6
22 6 -2 -8.91813 108.455 6
22 -6 -2 -85.7201 141.58 6
6 -22 -2 58.6102 171.846 6
22 6 -3 -38.0519 122.635 6
22 -6 -3 -62.558 145.55 6
6 -22 -3 -21.7394 140.497 6
22 -6 -4 34.8434 109.098 6
22 7 0 23.9287 105.315 6
22 7 1 138.212 120.9 6
22 7 -1 286.535 156.485 6
22 -7 -1 207.708 137.81 6
7 -22 -1 185.707 149.677 6
22 7 -2 194.048 128.341 6
22 -7 -2 51.3254 115.405 6
7 -22 -2 233.755 153.706 6
22 -7 -3 18.9094 103.943 6
22 8 0 709.872 189.192 6
22 8 -1 375.287 156.371 6
23 0 0 -212.77 157.084 6
0 -23 0 40.7552 126.292 6
23 0 -1 179.427 165.592 6
0 -23 -1 -35.8599 140.801 6
23 0 -2 1024.24 250.725 6
0 -23 -2 884.559 274.37 6
23 0 -3 576.183 190.774 6
0 -23 -3 444.978 208.254 6
23 1 0 -206.382 155.49 6
23 -1 0 -59.428 131.916 6
1 -23 0 63.105 119.401 6
-1 -23 0 -89.8378 155.719 6
23 1 -1 157.961 138.327 6
23 -1 -1 203.724 134.101 6
1 -23 -1 -53.5439 158.089 6
-1 -23 -1 277.974 184.954 6
23 1 -2 -113.732 137.312 6
23 -1 -2 81.2155 116.245 6
1 -23 -2 -65.4716 142.351 6
-1 -23 -2 46.3291 131.83 6
23 1 -3 -51.7319 115.298 6
23 -1 -3 351.758 165.152 6
1 -23 -3 -167.708 150.185 6
-1 -23 -3 155.412 128.531 6
23 2 0 -12.2862 124.615 6
23 -2 0 -22.8301 106.034 6
-2 -23 0 345.691 172.736 6
23 2 -1 192.055 143.512 6
23 -2 -1 260.986 160.365 6
2 -23 -1 260.839 145.631 6
-2 -23 -1 524.768 208.949 6
23 2 -2 -45.8339 110.891 6
23 -2 -2 337.495 172.525 6
2 -23 -2 -57.1197 121.309 6
-2 -23 -2 314.386 203.616 6
23 2 -3 398.623 165.389 6
23 -2 -3 668.539 210.553 6
-2 -23 -3 384.407 177.297 6
23 3 0 801.145 215.134 6
23 3 -1 124.088 127.494 6
23 -3 -1 208.67 151.151 6
-3 -23 -1 120.858 146.949 6
23 3 -2 69.9755 123.219 6
23 -3 -2 73.3952 115.544 6
3 -23 -2 -203.803 155.401 6
-3 -23 -2 67.6196 122.938 6
23 4 -1 35.2861 103.559 6

_iucr_refine_instructions_details 
;
TITL CY044-AS in P4/nmm
CELL 1.54184 18.844087 18.844087 13.425225 90 90 90
ZERR 4 0.000475 0.000475 0.000625 0 0 0
LATT 1
SYMM 0.5-Y,+X,+Z
SYMM 0.5-X,0.5-Y,+Z
SYMM +Y,0.5-X,+Z
SYMM 0.5+X,-Y,-Z
SYMM -X,0.5+Y,-Z
SYMM 0.5+Y,0.5+X,-Z
SYMM -Y,-X,-Z
SFAC C H Cu O
UNIT 100 76 8 40
 
L.S. 20 0 0
PLAN  40
MORE -1
BOND $H
CONF
ABIN
fmap 2 53
acta
REM <olex2.extras>
REM <HklSrc "%.\\CY044-AS.hkl">
REM </olex2.extras>
 
WGHT    0.176300
FVAR       2.89848
CU1   3    0.533883    0.533883    0.573475    10.50000    0.06660    0.06660 =
         0.09889   -0.01825   -0.01825    0.01199
O2    4    0.482122    0.380580    0.502595    11.00000    0.09114    0.07547 =
         0.11205   -0.01252   -0.02564    0.01133
C8    1    0.750000    0.250000    0.626503    10.25000    0.11048    0.09452 =
         0.06662    0.00000    0.00000    0.00000
AFIX   3
H8A   2    0.788910    0.221840    0.602673    10.25000   -1.50000
H8B   2    0.750000    0.297780    0.602673    10.25000   -1.50000
H8C   2    0.706160    0.230380    0.602673    10.25000   -1.50000
AFIX   0
C11   1    0.616281    0.250000    0.949986    10.50000    0.08238    0.11322 =
         0.09607    0.00000    0.00217    0.00000
PART -1
AFIX 137
H11A  2    0.622027    0.274778    1.011942    10.50000   -1.50000
H11B  2    0.601992    0.201977    0.962925    10.50000   -1.50000
H11C  2    0.580635    0.273245    0.910674    10.50000   -1.50000
AFIX   0
PART 0
O1    4    0.584652    0.584652    0.699564    10.50000    0.16450    0.16450 =
         0.11871   -0.04090   -0.04090   -0.05044
O3    4    0.541131    0.437923    0.624746    11.00000    0.08757    0.07793 =
         0.10695   -0.01382   -0.02073    0.01694
C9    1    0.685077    0.250000    0.894584    10.50000    0.08785    0.06070 =
         0.08077    0.00000   -0.00628    0.00000
C7    1    0.750000    0.250000    0.740079    10.25000    0.09525    0.05690 =
         0.07058    0.00000    0.00000    0.00000
C6    1    0.686845    0.250000    0.792332    10.50000    0.08452    0.06071 =
         0.07569    0.00000   -0.00463    0.00000
C5    1    0.619367    0.250000    0.732634    10.50000    0.09232    0.06491 =
         0.07284    0.00000   -0.00931    0.00000
C4    1    0.591720    0.312520    0.697470    11.00000    0.07908    0.07737 =
         0.08433   -0.00744   -0.01239    0.00688
AFIX  43
H4    2    0.608395    0.355242    0.723065    11.00000   -1.20000
AFIX   0
C10   1    0.750000    0.250000    0.946047    10.25000    0.07895    0.07306 =
         0.07398    0.00000    0.00000    0.00000
C2    1    0.540430    0.313533    0.625966    11.00000    0.07516    0.07447 =
         0.09386   -0.00549   -0.01486    0.00803
C1    1    0.519051    0.384094    0.580346    11.00000    0.07615    0.07609 =
         0.08381   -0.01199   -0.01092    0.01937
C3    1    0.515939    0.250000    0.588212    10.50000    0.07582    0.07394 =
         0.09055    0.00000   -0.00895    0.00000
AFIX  43
H3    2    0.482713    0.250000    0.536991    10.50000   -1.20000
AFIX   0
HKLF 4
 
REM  CY044-AS in P4/nmm
REM R1 =  0.0752 for    1563 Fo > 4sig(Fo)  and  0.0977 for all    2662 data
REM    101 parameters refined using      0 restraints
 
END  
     
WGHT      0.1763      0.0000 

REM Highest difference peak  0.733,  deepest hole -0.287,  1-sigma level  0.082
Q1    1   0.5412  0.5412  0.5032  10.50000  0.05    0.73
Q2    1   0.5401  0.5401  0.6366  10.50000  0.05    0.63
Q3    1   0.4629  0.2500  0.6370  10.50000  0.05    0.43
Q4    1   0.5470  0.4448  0.6883  11.00000  0.05    0.38
Q5    1   0.6261  0.6261  0.7064  10.50000  0.05    0.38
Q6    1   0.5419  0.6205  0.6753  11.00000  0.05    0.36
Q7    1   0.4773  0.2771  0.6629  11.00000  0.05    0.35
Q8    1   0.4810  0.2995  0.6757  11.00000  0.05    0.34
Q9    1   0.5025  0.5025  0.5858  10.50000  0.05    0.33
Q10   1   0.5010  0.3761  0.5150  11.00000  0.05    0.32
Q11   1   0.6201  0.2500  1.0354  10.50000  0.05    0.29
Q12   1   0.6042  0.2500  1.0059  10.50000  0.05    0.28
Q13   1   0.5963  0.5963  0.6366  10.50000  0.05    0.28
Q14   1   0.7016  0.2500  0.8977  10.50000  0.05    0.28
Q15   1   0.4630  0.3782  0.5547  11.00000  0.05    0.26
Q16   1   0.4664  0.3607  0.4847  11.00000  0.05    0.22
Q17   1   0.5355  0.3076  0.6910  11.00000  0.05    0.22
Q18   1   0.7500  0.2500  0.6915  10.25000  0.05    0.20
Q19   1   0.5437  0.5437  0.7613  10.50000  0.05    0.20
Q20   1   0.7500  0.1741  0.8829  10.50000  0.05    0.18
Q21   1   0.5247  0.5768  0.7986  11.00000  0.05    0.14
Q22   1   0.5990  0.5212  0.7797  11.00000  0.05    0.14
Q23   1   0.5736  0.2500  0.9297  10.50000  0.05    0.14
Q24   1   0.5130  0.3740  0.6418  11.00000  0.05    0.13
Q25   1   0.7500  0.2500  0.7827  10.25000  0.05    0.11
Q26   1   0.7164  0.7164  1.0224  10.50000  0.05    0.11
Q27   1   0.5804  0.3103  0.7649  11.00000  0.05    0.11
Q28   1   0.5205  0.2500  0.4864  10.50000  0.05    0.10
Q29   1   0.6374  0.3869  0.6914  11.00000  0.05    0.10
Q30   1   0.2500  0.2500  0.6826  10.12500  0.05    0.10
Q31   1   0.4393  0.3794  0.6936  11.00000  0.05    0.09
Q32   1   0.4534  0.4534  0.7290  10.50000  0.05    0.09
Q33   1   0.7500  0.7500  0.6489  10.12500  0.05    0.09
Q34   1   0.5932  0.4386  0.5829  11.00000  0.05    0.08
Q35   1   0.5336  0.3116  0.7655  11.00000  0.05    0.08
Q36   1   0.6322  0.1133  0.9196  11.00000  0.05    0.08
Q37   1   0.2833  0.2500  0.8665  10.50000  0.05    0.08
Q38   1   0.5668  0.2500  0.7541  10.50000  0.05    0.08
Q39   1   0.7032  0.7032  0.6457  10.50000  0.05    0.08
Q40   1   0.7159  0.3635  0.7248  11.00000  0.05    0.08

  REM The information below was added by Olex2.
  REM
  REM R1 = 0.0752 for 1563 Fo > 4sig(Fo) and 0.0977 for all 23218 data
  REM n/a parameters refined using n/a restraints
  REM Highest difference peak 0.73, deepest hole -0.29
  REM Mean Shift 0, Max Shift 0.000.

  REM +++ Tabular Listing of Refinement Information +++
  REM R1_all = 0.0977
  REM R1_gt = 0.0752
  REM wR_ref = 0.2681
  REM GOOF = 0.990
  REM Shift_max = 0.000
  REM Shift_mean = 0
  REM Reflections_all = 23218
  REM Reflections_gt = 1563
  REM Parameters = n/a
  REM Hole = -0.29
  REM Peak = 0.73
  REM Flack = n/a

  
;
_olex2_submission_special_instructions 'No special instructions were received'
_oxdiff_exptl_absorpt_empirical_details 
;
Empirical correction (ABSPACK) includes:
- Absorption correction using spherical harmonics
- Frame scaling
- Detector area scaling
;
_oxdiff_exptl_absorpt_empirical_full_max 1.356
_oxdiff_exptl_absorpt_empirical_full_min 0.805
